version 2
run Default-0-20241104-15:43:15-256
attr configname Default
attr datetime 20241104-15:43:15
attr experiment Default
attr inifile omnetpp.ini
attr iterationvars ""
attr iterationvarsf ""
attr measurement ""
attr network RSUExampleScenario
attr processid 256
attr repetition 0
attr replication #0
attr resultdir results
attr runnumber 0
attr seedset 0
param *.playgroundSizeX 2500m
param *.playgroundSizeY 1500m
param *.playgroundSizeZ 100m
param *.annotations.draw true
param *.manager.updateInterval 1s
param *.manager.host "\"localhost\""
param *.manager.port 9999
param *.manager.autoShutdown true
param *.manager.launchConfig "xmldoc(\"osm.launchd.xml\")"
param *.rsu[0].mobility.x 400
param *.rsu[0].mobility.y 250
param *.rsu[0].mobility.z 4
param *.rsu[*].applType "\"TraCIDemoRSU11p\""
param *.rsu[*].appl.headerLength "80 bit"
param *.rsu[*].appl.sendBeacons true
param *.rsu[*].appl.dataOnSch false
param *.rsu[*].appl.beaconInterval 1s
param *.rsu[*].appl.beaconUserPriority 7
param *.rsu[*].appl.dataUserPriority 5
param *.rsu[*].nic.phy80211p.antennaOffsetZ "0 m"
param *.connectionManager.sendDirect true
param *.connectionManager.maxInterfDist 2600m
param *.connectionManager.drawMaxIntfDist false
param *.**.nic.mac1609_4.useServiceChannel false
param *.**.nic.mac1609_4.txPower 20mW
param *.**.nic.mac1609_4.bitrate 6Mbps
param *.**.nic.phy80211p.minPowerLevel -110dBm
param *.**.nic.phy80211p.useNoiseFloor true
param *.**.nic.phy80211p.noiseFloor -98dBm
param *.**.nic.phy80211p.decider "xmldoc(\"config.xml\")"
param *.**.nic.phy80211p.analogueModels "xmldoc(\"config.xml\")"
param *.**.nic.phy80211p.usePropagationDelay true
param *.**.nic.phy80211p.antenna "xmldoc(\"antenna.xml\", \"/root/Antenna[@id='monopole']\")"
param *.node[*].nic.phy80211p.antennaOffsetY "0 m"
param *.node[*].nic.phy80211p.antennaOffsetZ "1.895 m"
param *.node[*].applType "\"TraCIDemo11p\""
param *.node[*].appl.headerLength "80 bit"
param *.node[*].appl.sendBeacons false
param *.node[*].appl.dataOnSch false
param *.node[*].appl.beaconInterval 1s
param *.node[*].veinsmobility.x 0
param *.node[*].veinsmobility.y 0
param *.node[*].veinsmobility.z 0
param *.node[*].veinsmobility.setHostSpeed false
param *.node[*0].veinsmobility.accidentCount 1
param *.node[*0].veinsmobility.accidentStart 73s
param *.node[*0].veinsmobility.accidentDuration 50s

vector 0 RSUExampleScenario.node[0].veinsmobility posx ETV
vector 1 RSUExampleScenario.node[0].veinsmobility posy ETV
vector 2 RSUExampleScenario.node[0].veinsmobility speed ETV
vector 3 RSUExampleScenario.node[0].veinsmobility acceleration ETV
vector 4 RSUExampleScenario.node[0].veinsmobility co2emission ETV
vector 5 RSUExampleScenario.node[1].veinsmobility posx ETV
vector 6 RSUExampleScenario.node[1].veinsmobility posy ETV
vector 7 RSUExampleScenario.node[1].veinsmobility speed ETV
vector 8 RSUExampleScenario.node[1].veinsmobility acceleration ETV
vector 9 RSUExampleScenario.node[1].veinsmobility co2emission ETV
vector 10 RSUExampleScenario.node[2].veinsmobility posx ETV
vector 11 RSUExampleScenario.node[2].veinsmobility posy ETV
vector 12 RSUExampleScenario.node[2].veinsmobility speed ETV
vector 13 RSUExampleScenario.node[2].veinsmobility acceleration ETV
vector 14 RSUExampleScenario.node[2].veinsmobility co2emission ETV
vector 15 RSUExampleScenario.node[3].veinsmobility posx ETV
vector 16 RSUExampleScenario.node[3].veinsmobility posy ETV
vector 17 RSUExampleScenario.node[3].veinsmobility speed ETV
vector 18 RSUExampleScenario.node[3].veinsmobility acceleration ETV
vector 19 RSUExampleScenario.node[3].veinsmobility co2emission ETV
vector 20 RSUExampleScenario.node[4].veinsmobility posx ETV
vector 21 RSUExampleScenario.node[4].veinsmobility posy ETV
vector 22 RSUExampleScenario.node[4].veinsmobility speed ETV
vector 23 RSUExampleScenario.node[4].veinsmobility acceleration ETV
vector 24 RSUExampleScenario.node[4].veinsmobility co2emission ETV
vector 25 RSUExampleScenario.node[5].veinsmobility posx ETV
vector 26 RSUExampleScenario.node[5].veinsmobility posy ETV
vector 27 RSUExampleScenario.node[5].veinsmobility speed ETV
vector 28 RSUExampleScenario.node[5].veinsmobility acceleration ETV
vector 29 RSUExampleScenario.node[5].veinsmobility co2emission ETV
vector 30 RSUExampleScenario.node[6].veinsmobility posx ETV
vector 31 RSUExampleScenario.node[6].veinsmobility posy ETV
vector 32 RSUExampleScenario.node[6].veinsmobility speed ETV
vector 33 RSUExampleScenario.node[6].veinsmobility acceleration ETV
vector 34 RSUExampleScenario.node[6].veinsmobility co2emission ETV
vector 35 RSUExampleScenario.node[7].veinsmobility posx ETV
vector 36 RSUExampleScenario.node[7].veinsmobility posy ETV
vector 37 RSUExampleScenario.node[7].veinsmobility speed ETV
vector 38 RSUExampleScenario.node[7].veinsmobility acceleration ETV
vector 39 RSUExampleScenario.node[7].veinsmobility co2emission ETV
vector 40 RSUExampleScenario.node[8].veinsmobility posx ETV
vector 41 RSUExampleScenario.node[8].veinsmobility posy ETV
vector 42 RSUExampleScenario.node[8].veinsmobility speed ETV
vector 43 RSUExampleScenario.node[8].veinsmobility acceleration ETV
vector 44 RSUExampleScenario.node[8].veinsmobility co2emission ETV
vector 45 RSUExampleScenario.node[9].veinsmobility posx ETV
vector 46 RSUExampleScenario.node[9].veinsmobility posy ETV
vector 47 RSUExampleScenario.node[9].veinsmobility speed ETV
vector 48 RSUExampleScenario.node[9].veinsmobility acceleration ETV
vector 49 RSUExampleScenario.node[9].veinsmobility co2emission ETV
19	892	42	0.973
19	923	43	1.3538306186218
19	954	44	3.5431572414124
19	985	45	1.6663003302709
19	1016	46	1.7172738144048
19	1048	47	1.4454347304129
19	1080	48	2.005334549651
19	1112	49	1.2246370700728
19	1144	50	0.973
19	1176	51	1.5440843614044
19	1208	52	4.526850302579
19	1240	53	0.973
19	1272	54	3.9652222308965
19	1305	55	0.973
19	1338	56	1.4891031707058
19	1371	57	3.8374552183057
19	1404	58	0.973
19	1437	59	1.2604180787681
19	1470	60	3.4179669437618
19	1502	61	1.2577916281772
19	1535	62	2.6309540487968
19	1568	63	0.973
19	1601	64	4.5764466436962
19	1634	65	0.973
19	1667	66	0.973
19	1706	67	3.224347762191
19	1745	68	0.973
19	1784	69	1.9767211615285
19	1823	70	2.7562543522833
19	1862	71	2.9158763079265
19	1901	72	0.973
19	1940	73	2.5681472681826
19	1980	74	0.973
19	2019	75	2.6545968395726
19	2058	76	2.2786864802189
19	2097	77	2.1014693234116
19	2136	78	0.973
19	2175	79	0.973
19	2219	80	2.3396933401289
19	2263	81	0.973
19	2307	82	2.4706924539988
19	2351	83	0.973
19	2395	84	3.6566438624308
19	2439	85	1.8077887727762
19	2524	86	0.973
19	2568	87	1.4338653237434
19	2739	88	3.0493482094372
19	2783	89	2.1058251886512
19	2953	90	1.7977261717268
19	2997	91	0.973
19	3083	92	0.973
19	3132	93	0.973
19	3181	94	3.6425255570933
19	3230	95	3.4230817162244
19	3279	96	7.2073477991457
19	3328	97	5.9105551111326
19	3377	98	1.2727850829896
19	3426	99	0.973
19	3475	100	0.973
19	3524	101	0.973
19	3573	102	4.0189481088386
19	3622	103	5.0265369149563
19	3671	104	6.8825236459761
19	3720	105	3.3553178603835
19	3775	106	0.973
19	3830	107	3.857941559225
19	3885	108	1.2405903620296
19	3940	109	0.973
19	3996	110	0.973
19	4052	111	3.1883677120141
19	4108	112	3.9464945912426
19	4164	113	4.6562291427198
19	4221	114	6.3908684171553
19	4277	115	3.1888137767855
19	4333	116	0.973
19	4390	117	0.973
19	4447	118	0.973
19	4509	119	0.973
19	4571	120	6.1253417044403
19	4633	121	6.6932564657165
19	4695	122	3.0231003054182
19	4757	123	1.6177945890045
19	4820	124	2.7843492046154
19	4882	125	0.973
19	4944	126	0.973
19	5006	127	0.973
19	5068	128	0.973
19	5130	129	3.8210153539864
19	5192	130	4.4049334185434
19	5254	131	5.2589135376646
19	5321	132	6.172983678454
19	5388	133	0.973
19	5455	134	3.4986426689129
19	5522	135	0.973
19	5590	136	1.5778835110437
18	892	42	-0.49634874938056
18	923	43	-0.14586682736408
18	954	44	0.65799731886946
18	985	45	-0.039619067776949
18	1016	46	-0.019996290677227
18	1048	47	-0.11936196009628
18	1080	48	0.088994176522828
18	1112	49	-0.20150843723677
18	1144	50	-0.62906653960235
18	1176	51	-0.062531436234714
18	1208	52	1.0197149918647
18	1240	53	-0.76875352701172
18	1272	54	0.80734855867922
18	1305	55	-0.64494215485174
18	1338	56	-0.092260914039798
18	1371	57	0.75805382414255
18	1404	58	-0.73555918140337
18	1437	59	-0.18059563988354
18	1470	60	0.62807921643835
18	1502	61	-0.18764145411551
18	1535	62	0.32185696833767
18	1568	63	-0.85108319688588
18	1601	64	1.0279893169645
18	1634	65	-0.31607552224304
18	1667	66	-0.2778021042468
18	1706	67	0.53459915493149
18	1745	68	-1.1672135810601
18	1784	69	0.11452075592242
18	1823	70	0.404131139745
18	1862	71	0.43517440482974
18	1901	72	-0.55730049228296
18	1940	73	0.31815189865883
18	1980	74	-0.22865411888342
18	2019	75	0.34421498412267
18	2058	76	0.19137903554365
18	2097	77	0.11988487190101
18	2136	78	-0.44096788608003
18	2175	79	-0.55556270261295
18	2219	80	0.24728472358547
18	2263	81	-0.2547135152854
18	2307	82	0.29687777149957
18	2351	83	-0.45616149615962
18	2395	84	0.73800356262364
18	2439	85	0.023911066632717
18	2524	86	-0.63490572459996
18	2568	87	-0.10493885362521
18	2739	88	0.51925031943247
18	2783	89	0.14209837743547
18	2953	90	0.021901254961266
18	2997	91	-0.31305744196288
18	3083	92	-2.935588032973
18	3132	93	-2.92835180575
18	3181	94	1.5186360970139
18	3230	95	1.1166784818701
18	3279	96	2.4041965243872
18	3328	97	1.5424825725723
18	3377	98	-0.18434374367353
18	3426	99	-0.47024997947737
18	3475	100	-0.97750391001222
18	3524	101	-4.5
18	3573	102	1.6103685823036
18	3622	103	1.724187891325
18	3671	104	2.0630994800711
18	3720	105	0.60094241651581
18	3775	106	-0.99304656700697
18	3830	107	0.80976078410167
18	3885	108	-0.19235229650512
18	3940	109	-2.1579830236251
18	3996	110	-4.0806452443125
18	4052	111	1.3046075610677
18	4108	112	1.4338872503722
18	4164	113	1.4823798019206
18	4221	114	1.8539191005519
18	4277	115	0.53820114233364
18	4333	116	-0.28712881959509
18	4390	117	-0.3176009199582
18	4447	118	-0.77283973939012
18	4509	119	-4.3584904307965
18	4571	120	2.4702338451752
18	4633	121	2.1163175751688
18	4695	122	0.5243155888351
18	4757	123	-0.037106764595954
18	4820	124	0.40295919580385
18	4882	125	-0.28202345431782
18	4944	126	-0.28821370191872
18	5006	127	-1.9052197900661
18	5068	128	-3.2014433673932
18	5130	129	1.4992783194408
18	5192	130	1.4771120201563
18	5254	131	1.5593118736753
18	5321	132	1.6245552013339
18	5388	133	-0.97571109118871
18	5455	134	0.66321087281685
18	5522	135	-0.50795226907358
18	5590	136	-0.05346142789349
17	861	41	11.13044027405
17	892	42	10.63409152467
17	923	43	10.488224697306
17	954	44	11.146222016175
17	985	45	11.106602948398
17	1016	46	11.086606657721
17	1048	47	10.967244697625
17	1080	48	11.056238874148
17	1112	49	10.854730436911
17	1144	50	10.225663897308
17	1176	51	10.163132461074
17	1208	52	11.182847452938
17	1240	53	10.414093925927
17	1272	54	11.221442484606
17	1305	55	10.576500329754
17	1338	56	10.484239415714
17	1371	57	11.242293239857
17	1404	58	10.506734058454
17	1437	59	10.32613841857
17	1470	60	10.954217635008
17	1502	61	10.766576180893
17	1535	62	11.088433149231
17	1568	63	10.237349952345
17	1601	64	11.265339269309
17	1634	65	10.949263747066
17	1667	66	10.671461642819
17	1706	67	11.206060797751
17	1745	68	10.038847216691
17	1784	69	10.153367972613
17	1823	70	10.557499112358
17	1862	71	10.992673517188
17	1901	72	10.435373024905
17	1940	73	10.753524923564
17	1980	74	10.52487080468
17	2019	75	10.869085788803
17	2058	76	11.060464824347
17	2097	77	11.180349696248
17	2136	78	10.739381810168
17	2175	79	10.183819107555
17	2219	80	10.43110383114
17	2263	81	10.176390315855
17	2307	82	10.473268087354
17	2351	83	10.017106591195
17	2395	84	10.755110153818
17	2439	85	10.779021220451
17	2524	86	10.144115495851
17	2568	87	10.039176642226
17	2739	88	10.558426961658
17	2783	89	10.700525339094
17	2953	90	10.722426594055
17	2997	91	10.409369152092
17	3083	92	7.4737811191192
17	3132	93	4.5454293133692
17	3181	94	6.0640654103832
17	3230	95	7.1807438922532
17	3279	96	9.5849404166404
17	3328	97	11.127422989213
17	3377	98	10.943079245539
17	3426	99	10.472829266062
17	3475	100	9.4953253560497
17	3524	101	4.9953253560497
17	3573	102	6.6056939383533
17	3622	103	8.3298818296783
17	3671	104	10.392981309749
17	3720	105	10.993923726265
17	3775	106	10.000877159258
17	3830	107	10.81063794336
17	3885	108	10.618285646855
17	3940	109	8.4603026232297
17	3996	110	4.3796573789173
17	4052	111	5.6842649399849
17	4108	112	7.1181521903571
17	4164	113	8.6005319922778
17	4221	114	10.45445109283
17	4277	115	10.992652235163
17	4333	116	10.705523415568
17	4390	117	10.38792249561
17	4447	118	9.6150827562198
17	4509	119	5.2565923254233
17	4571	120	7.7268261705986
17	4633	121	9.8431437457674
17	4695	122	10.367459334602
17	4757	123	10.330352570007
17	4820	124	10.73331176581
17	4882	125	10.451288311493
17	4944	126	10.163074609574
17	5006	127	8.2578548195077
17	5068	128	5.0564114521145
17	5130	129	6.5556897715553
17	5192	130	8.0328017917116
17	5254	131	9.5921136653869
17	5321	132	11.216668866721
17	5388	133	10.240957775532
17	5455	134	10.904168648349
17	5522	135	10.396216379275
17	5590	136	10.342754951382
16	830	40	836.7059994293
16	861	41	826.02514039924
16	892	42	815.82058157755
16	923	43	805.75599772378
16	954	44	795.05999440843
16	985	45	784.40200986569
16	1016	46	773.76321392255
16	1048	47	763.23895866585
16	1080	48	752.62930388941
16	1112	49	742.21301821235
16	1144	50	732.40038979093
16	1176	51	722.64776703317
16	1208	52	711.91661765735
16	1240	53	701.9231702815
16	1272	54	691.15498480626
16	1305	55	681.00569095336
16	1338	56	670.94493140751
16	1371	57	660.15673738166
16	1404	58	650.07439179769
16	1437	59	640.17621361377
16	1470	60	629.67876477317
16	1502	61	619.36113311629
16	1535	62	608.73506527787
16	1568	63	598.92459218259
16	1601	64	588.1289948527
16	1634	65	577.63629333291
16	1667	66	567.40981012959
16	1706	67	556.67101947848
16	1745	68	547.0323550559
16	1784	69	537.24804744691
16	1823	70	527.07429828548
16	1862	71	516.4811926847
16	1901	72	506.4251305026
16	1940	73	496.06248078706
16	1980	74	485.92017394113
16	2019	75	475.44616383206
16	2058	76	464.78773104091
16	2097	77	454.01377102101
16	2136	78	443.64811246535
16	2175	79	433.8053310479
16	2219	80	423.72354602517
16	2263	81	413.88794462262
16	2307	82	403.76540734839
16	2351	83	394.08375554653
16	2395	84	383.68881458709
16	2439	85	373.2707632994
16	2524	86	363.46635589148
16	2568	87	353.7633731247
16	2739	88	343.5585287929
16	2783	89	333.21634470143
16	2953	90	322.85299278842
16	2997	91	312.79221458964
16	3083	92	305.51897853287
16	3132	93	301.10103202588
16	3181	94	297.92213321158
16	3230	95	297.98426788724
16	3279	96	298.67554916567
16	3328	97	299.47807676159
16	3377	98	300.26730919101
16	3426	99	301.02262643756
16	3475	100	301.70744453407
16	3524	101	302.06771541194
16	3573	102	302.74276563062
16	3622	103	303.65419169289
16	3671	104	305.0417806986
16	3720	105	306.55166156049
16	3775	106	307.92515963096
16	3830	107	309.40986843393
16	3885	108	310.8681600033
16	3940	109	312.03007901735
16	3996	110	312.63157135282
16	4052	111	313.40510812361
16	4108	112	314.36882577941
16	4164	113	315.52610514464
16	4221	114	316.92477695804
16	4277	115	318.39545319913
16	4333	116	319.82771527737
16	4390	117	321.21748641556
16	4447	118	322.50386148348
16	4509	119	323.20712628953
16	4571	120	324.23252976623
16	4633	121	325.53660670965
16	4695	122	326.90985110173
16	4757	123	328.27818043653
16	4820	124	329.6998846087
16	4882	125	331.08423275038
16	4944	126	332.43040491883
16	5006	127	333.52421705308
16	5068	128	334.1939750378
16	5130	129	335.13707015929
16	5192	130	336.31117677038
16	5254	131	337.78570454083
16	5321	132	339.52737154911
16	5388	133	341.11753512644
16	5455	134	342.81067869814
16	5522	135	344.42495003786
16	5590	136	346.03092016033
15	830	40	565.71467961936
15	861	41	568.84578075968
15	892	42	571.83725416768
15	923	43	574.78769381796
15	954	44	577.92323451589
15	985	45	581.04762998458
15	1016	46	584.16640030216
15	1048	47	587.25159293905
15	1080	48	590.36182050365
15	1112	49	593.41536178433
15	1144	50	596.29194052704
15	1176	51	599.15092856836
15	1208	52	602.29677235798
15	1240	53	605.22635830104
15	1272	54	608.38305924857
15	1305	55	611.35833169312
15	1338	56	614.30765024492
15	1371	57	617.47021671277
15	1404	58	620.42586322643
15	1437	59	623.3674602354
15	1470	60	626.4973744296
15	1502	61	629.57367442054
15	1535	62	632.741937592
15	1568	63	635.66702343513
15	1601	64	638.88583343656
15	1634	65	642.01433217191
15	1667	66	645.06345538467
15	1706	67	648.26532793464
15	1745	68	651.06967165941
15	1784	69	653.78194213037
15	1823	70	656.60216820381
15	1862	71	659.53864247106
15	1901	72	662.32624498731
15	1940	73	665.19883546049
15	1980	74	668.01034552997
15	2019	75	670.91380579171
15	2058	76	673.86838915942
15	2097	77	676.85499738812
15	2136	78	679.66249095711
15	2175	79	682.27553900687
15	2219	80	684.95203740446
15	2263	81	687.56317931375
15	2307	82	690.25049656293
15	2351	83	692.82076814434
15	2395	84	695.58040274856
15	2439	85	698.34617265088
15	2524	86	700.94903322146
15	2568	87	703.52496771804
15	2739	88	706.23413573146
15	2783	89	708.97976451506
15	2953	90	711.73101290276
15	2997	91	714.40193443767
15	3083	92	716.07419857288
15	3132	93	715.76395552843
15	3181	94	711.14167994906
15	3230	95	703.97868984645
15	3279	96	694.41854875818
15	3328	97	683.31991599663
15	3377	98	672.4051500221
15	3426	99	661.95941733887
15	3475	100	652.48865944817
15	3524	101	647.50625860792
15	3573	102	640.93566254365
15	3622	103	632.65549486282
15	3671	104	622.35628931329
15	3720	105	611.46689580054
15	3775	106	601.56110696924
15	3830	107	590.85325655839
15	3885	108	580.33592955865
15	3940	109	571.95606748254
15	3996	110	567.6180518807
15	4052	111	561.98492616423
15	4108	112	554.92879540716
15	4164	113	546.40458923039
15	4221	114	536.04448641373
15	4277	115	525.15103955814
15	4333	116	514.54213027093
15	4390	117	504.24795565091
15	4447	118	494.71964612413
15	4509	119	489.51049296314
15	4571	120	481.85102099539
15	4633	121	472.09332861183
15	4695	122	461.81772508941
15	4757	123	451.57889956521
15	4820	124	440.94068506844
15	4882	125	430.58199529485
15	4944	126	420.50896564638
15	5006	127	412.32427551813
15	5068	128	407.31266393121
15	5130	129	400.82444815253
15	5192	130	392.87664955438
15	5254	131	383.39879063401
15	5321	132	372.31878846076
15	5388	133	362.2026090712
15	5455	134	351.43129953566
15	5522	135	341.16175325194
15	5590	136	330.94501700873
9	261	16	0.973
9	282	17	3.9464647693789
9	303	18	1.6007053238051
9	324	19	0.973
9	345	20	2.0225587939251
9	366	21	3.261700555886
9	387	22	2.3124994925713
9	408	23	0.973
9	429	24	1.290919599959
9	450	25	2.7796534944845
9	471	26	2.4134563573761
9	492	27	0.973
9	518	28	3.069383118891
9	544	29	0.973
9	570	30	0.973
9	596	31	2.1851571094937
9	622	32	4.2408413053237
9	648	33	0.973
9	674	34	2.4048461713661
9	700	35	0.973
9	726	36	3.3308811512055
9	752	37	1.4911101938823
9	778	38	0.973
9	804	39	1.8270331609201
9	830	40	3.1786697515982
9	861	41	0.973
9	892	42	3.2963890208663
9	923	43	2.7389069182925
9	954	44	0.973
9	985	45	0.973
9	1016	46	3.5255214036049
9	1048	47	1.6017421274937
9	1080	48	0.973
9	1112	49	4.8023155528994
9	1144	50	0.973
9	1176	51	1.821314885649
9	1208	52	1.8024682587718
9	1240	53	3.9761583043761
9	1272	54	0.973
9	1305	55	2.6923074646476
9	1338	56	0.973
9	1371	57	2.4782416359954
9	1404	58	1.3302808905154
9	1437	59	1.4209406182345
9	1470	60	1.7092579687384
9	1502	61	0.973
9	1535	62	4.4551433151749
9	1568	63	0.973
9	1601	64	2.6229823153757
9	1634	65	2.0059978233541
9	1667	66	1.3838963609595
9	1706	67	1.7033347878695
9	1745	68	3.4510361217589
9	1784	69	0.973
9	1823	70	3.4520514445683
9	1862	71	1.4572533714813
9	1901	72	3.0777159308224
9	1940	73	0.973
9	1980	74	2.5450204504349
9	2019	75	1.398357443187
9	2058	76	3.0345600334863
9	2097	77	1.5031154197596
9	2136	78	0.973
9	2175	79	4.5353915390402
9	2219	80	0.973
9	2263	81	3.0525628256413
9	2307	82	1.2970712889234
9	2351	83	3.0378613877402
9	2395	84	0.973
9	2439	85	4.2470710555766
9	2524	86	0.973
9	2568	87	3.2302837718897
9	2739	88	3.4994106983582
9	2783	89	1.4179701224904
9	2953	90	0.973
9	2997	91	2.1688013499236
9	3083	92	0.973
9	3132	93	5.4646095805654
9	3181	94	0.973
9	3230	95	8.2605703841122
9	3279	96	0.973
9	3328	97	1.3149631995738
9	3377	98	1.9331989781424
9	3426	99	0.973
9	3475	100	0.973
9	3524	101	5.4516129838315
9	3573	102	6.2487497583328
9	3622	103	5.5408670113195
9	3671	104	0.973
9	3720	105	4.0017534761515
9	3775	106	1.7215248823485
9	3830	107	0.973
9	3885	108	0.973
9	3940	109	7.9143296110099
9	3996	110	4.9765759768432
9	4052	111	0.973
9	4108	112	0.973
9	4164	113	2.5949750743285
9	4221	114	0.973
9	4277	115	0.973
9	4333	116	0.973
9	4390	117	3.779868836802
9	4447	118	4.5804897674451
9	4509	119	4.4093798282848
9	4571	120	8.5487982928527
9	4633	121	2.1939491787481
9	4695	122	0.973
9	4757	123	0.973
9	4820	124	0.973
9	4882	125	1.2852750080087
9	4944	126	3.3013244501557
9	5006	127	1.4584087824324
9	5068	128	3.1197055357299
9	5130	129	0.973
9	5192	130	1.2433460142944
9	5254	131	9.8018229977941
9	5321	132	7.6858118335283
9	5388	133	9.4621271877854
9	5455	134	5.5976747160159
9	5522	135	0.973
9	5590	136	2.4899082566682
9	5658	137	1.9470928775825
9	5720	138	1.9169822814203
9	5781	139	6.6650016009492
8	261	16	-0.30721754173283
8	282	17	0.76523482063785
8	303	18	-0.073846101900562
8	324	19	-0.87927338609006
8	345	20	0.10855594426394
8	366	21	0.5430426526349
8	387	22	0.18493673645426
8	408	23	-0.39689575319644
8	429	24	-0.17662184832152
8	450	25	0.36699160824064
8	471	26	0.22078223719727
8	492	27	-0.51001562541351
8	518	28	0.46144263336901
8	544	29	-0.58807911893818
8	570	30	-0.37468959642574
8	596	31	0.17583736907691
8	622	32	0.87720311805606
8	648	33	-0.75950915268622
8	674	34	0.24202619988937
8	700	35	-0.62513258524705
8	726	36	0.59405945716426
8	752	37	-0.099899849388748
8	778	38	-0.31491493999492
8	804	39	0.037816776428372
8	830	40	0.52480604718439
8	861	41	-0.38788566880394
8	892	42	0.55521224022377
8	923	43	0.33023136877455
8	954	44	-0.26853054594249
8	985	45	-0.87122174436226
8	1016	46	0.6533049096819
8	1048	47	-0.062633829191327
8	1080	48	-0.65199583088979
8	1112	49	1.0822700885823
8	1144	50	-0.96782094519585
8	1176	51	0.036532766185701
8	1208	52	0.028176140319555
8	1240	53	0.79479138441384
8	1272	54	-0.28824300435372
8	1305	55	0.32470223023556
8	1338	56	-0.62349777300842
8	1371	57	0.26607003763784
8	1404	58	-0.16187964223791
8	1437	59	-0.12496236097068
8	1470	60	-0.013549299747682
8	1502	61	-0.36033633574843
8	1535	62	0.97064922766294
8	1568	63	-0.80936361064669
8	1601	64	0.33057141776662
8	1634	65	0.091958852880634
8	1667	66	-0.14047646238468
8	1706	67	-0.017751194164157
8	1745	68	0.5997577035334
8	1784	69	-0.86627218474168
8	1823	70	0.62091045244597
8	1862	71	-0.11689649843611
8	1901	72	0.45747137311846
8	1940	73	-0.86691784623545
8	1980	74	0.29742853287607
8	2019	75	-0.13444984017406
8	2058	76	0.45911448544357
8	2097	77	-0.10210022223182
8	2136	78	-0.51823337238748
8	2175	79	0.97027112061624
8	2219	80	-1.176154254307
8	2263	81	0.49052081075497
8	2307	82	-0.17255996058229
8	2351	83	0.46353819423821
8	2395	84	-0.66033828225918
8	2439	85	0.88545295121148
8	2524	86	-1.0837172931992
8	2568	87	0.55864520648029
8	2739	88	0.60779055852909
8	2783	89	-0.13795667937957
8	2953	90	-0.43680697511882
8	2997	91	0.14775466775633
8	3083	92	-4.0493071817793
8	3132	93	1.8063413808274
8	3181	94	-0.33093247546349
8	3230	95	2.4524649926694
8	3279	96	-0.45307349749139
8	3328	97	-0.15954326868523
8	3377	98	0.084256167407148
8	3426	99	-0.84284421766186
8	3475	100	-4.1494280016748
8	3524	101	2.1430918511003
8	3573	102	1.9853496364085
8	3622	103	1.4212664190867
8	3671	104	-0.5339090884896
8	3720	105	0.81263262128923
8	3775	106	-0.02390689055901
8	3830	107	-0.53159035632852
8	3885	108	-2.7532598009747
8	3940	109	2.4593247350771
8	3996	110	1.1332801322867
8	4052	111	-0.32868898194283
8	4108	112	-0.22460451812949
8	4164	113	0.29467793258373
8	4221	114	-0.6686819071183
8	4277	115	-2.4714809236719
8	4333	116	-2.9461269052466
8	4390	117	1.4409155321773
8	4447	118	1.528189688758
8	4509	119	1.217998128381
8	4571	120	2.3642453478184
8	4633	121	0.1229273016369
8	4695	122	-0.50311698947169
8	4757	123	-0.38987427351531
8	4820	124	-0.33587922197766
8	4882	125	-0.1733387055574
8	4944	126	0.57299016918987
8	5006	127	-0.11452129227109
8	5068	128	0.47798427410889
8	5130	129	-0.77232411301229
8	5192	130	-0.18955677882768
8	5254	131	2.5100635003299
8	5321	132	1.5889868666884
8	5388	133	1.810456270352
8	5455	134	0.77151622910372
8	5522	135	-0.80846063527279
8	5590	136	0.045702130394059
8	5658	137	-0.089315404277297
8	5720	138	-0.094596471870318
8	5781	139	1.0225744403666
7	240	15	11.117513867288
7	261	16	10.810296325555
7	282	17	11.575531146193
7	303	18	11.501685044293
7	324	19	10.622411658203
7	345	20	10.730967602467
7	366	21	11.274010255101
7	387	22	11.458946991556
7	408	23	11.062051238359
7	429	24	10.885429390038
7	450	25	11.252420998278
7	471	26	11.473203235476
7	492	27	10.963187610062
7	518	28	11.424630243431
7	544	29	10.836551124493
7	570	30	10.461861528067
7	596	31	10.637698897144
7	622	32	11.5149020152
7	648	33	10.755392862514
7	674	34	10.997419062403
7	700	35	10.372286477156
7	726	36	10.966345934321
7	752	37	10.866446084932
7	778	38	10.551531144937
7	804	39	10.589347921365
7	830	40	11.11415396855
7	861	41	10.726268299746
7	892	42	11.28148053997
7	923	43	11.611711908744
7	954	44	11.343181362802
7	985	45	10.471959618439
7	1016	46	11.125264528121
7	1048	47	11.06263069893
7	1080	48	10.41063486804
7	1112	49	11.492904956622
7	1144	50	10.525084011427
7	1176	51	10.561616777612
7	1208	52	10.589792917932
7	1240	53	11.384584302346
7	1272	54	11.096341297992
7	1305	55	11.421043528227
7	1338	56	10.797545755219
7	1371	57	11.063615792857
7	1404	58	10.901736150619
7	1437	59	10.776773789648
7	1470	60	10.763224489901
7	1502	61	10.402888154152
7	1535	62	11.373537381815
7	1568	63	10.564173771168
7	1601	64	10.894745188935
7	1634	65	10.986704041816
7	1667	66	10.846227579431
7	1706	67	10.828476385267
7	1745	68	11.4282340888
7	1784	69	10.561961904059
7	1823	70	11.182872356505
7	1862	71	11.065975858068
7	1901	72	11.523447231187
7	1940	73	10.656529384951
7	1980	74	10.953957917828
7	2019	75	10.819508077653
7	2058	76	11.278622563097
7	2097	77	11.176522340865
7	2136	78	10.658288968478
7	2175	79	11.628560089094
7	2219	80	10.452405834787
7	2263	81	10.942926645542
7	2307	82	10.77036668496
7	2351	83	11.233904879198
7	2395	84	10.573566596939
7	2439	85	11.45901954815
7	2524	86	10.375302254951
7	2568	87	10.933947461431
7	2739	88	11.54173801996
7	2783	89	11.403781340581
7	2953	90	10.966974365462
7	2997	91	11.114729033218
7	3083	92	7.065421851439
7	3132	93	8.8717632322664
7	3181	94	8.5408307568029
7	3230	95	10.993295749472
7	3279	96	10.540222251981
7	3328	97	10.380678983296
7	3377	98	10.464935150703
7	3426	99	9.622090933041
7	3475	100	5.4726629313662
7	3524	101	7.6157547824665
7	3573	102	9.601104418875
7	3622	103	11.022370837962
7	3671	104	10.488461749472
7	3720	105	11.301094370761
7	3775	106	11.277187480202
7	3830	107	10.745597123874
7	3885	108	7.9923373228991
7	3940	109	10.451662057976
7	3996	110	11.584942190263
7	4052	111	11.25625320832
7	4108	112	11.031648690191
7	4164	113	11.326326622774
7	4221	114	10.657644715656
7	4277	115	8.186163791984
7	4333	116	5.2400368867374
7	4390	117	6.6809524189147
7	4447	118	8.2091421076727
7	4509	119	9.4271402360537
7	4571	120	11.791385583872
7	4633	121	11.914312885509
7	4695	122	11.411195896037
7	4757	123	11.021321622522
7	4820	124	10.685442400544
7	4882	125	10.512103694987
7	4944	126	11.085093864177
7	5006	127	10.970572571906
7	5068	128	11.448556846015
7	5130	129	10.676232733002
7	5192	130	10.486675954175
7	5254	131	12.996739454504
7	5321	132	14.585726321193
7	5388	133	16.396182591545
7	5455	134	17.167698820649
7	5522	135	16.359238185376
7	5590	136	16.40494031577
7	5658	137	16.315624911493
7	5720	138	16.221028439622
7	5781	139	17.243602879989
6	219	14	1156.8034521536
6	240	15	1146.1730426818
6	261	16	1135.7920885076
6	282	17	1124.6574604927
6	303	18	1113.5831297526
6	324	19	1103.3197226703
6	345	20	1092.951428498
6	366	21	1082.068531469
6	387	22	1071.013377662
6	408	23	1060.3411336983
6	429	24	1049.8435556332
6	450	25	1039.0766280554
6	471	26	1028.0984440413
6	492	27	1017.5997497421
6	518	28	1006.6325136386
6	544	29	996.22981243973
6	570	30	986.18095332842
6	596	31	975.95455713343
6	622	32	964.90084991189
6	648	33	954.58098579066
6	674	34	944.0288960754
6	700	35	934.07662483445
6	726	36	923.55434997242
6	752	37	913.13434545345
6	778	38	903.01745072651
6	804	39	892.86429696373
6	830	40	882.2079548524
6	861	41	871.91746419978
6	892	42	861.08673885154
6	923	43	849.93897663532
6	954	44	839.04901574052
6	985	45	828.99546664443
6	1016	46	818.31471564692
6	1048	47	807.7281618173
6	1080	48	797.83555176312
6	1112	49	786.91452450909
6	1144	50	776.87009044861
6	1176	51	766.71925945527
6	1208	52	756.54134821045
6	1240	53	745.59955836749
6	1272	54	734.93480054376
6	1305	55	723.95796952786
6	1338	56	713.56175939559
6	1371	57	702.89915367373
6	1404	58	692.39256013017
6	1437	59	682.00968359082
6	1470	60	671.67121457257
6	1502	61	661.67886172487
6	1535	62	650.75416495205
6	1568	63	640.6068913967
6	1601	64	630.14209195827
6	1634	65	619.60367165605
6	1667	66	609.21268875996
6	1706	67	598.83871199375
6	1745	68	587.89015093144
6	1784	69	577.73426967877
6	1823	70	566.98123258927
6	1862	71	556.34059885583
6	1901	72	545.26007754381
6	1940	73	535.01315241861
6	1980	74	524.48023099984
6	2019	75	514.07659158232
6	2058	76	503.23148463008
6	2097	77	492.48455348112
6	2136	78	482.23593640538
6	2175	79	471.05434245087
6	2219	80	461.0036949935
6	2263	81	450.49700832797
6	2307	82	440.17907690421
6	2351	83	429.41707932742
6	2395	84	419.28768092874
6	2439	85	408.31002516828
6	2524	86	398.37056253912
6	2568	87	387.89592194442
6	2739	88	376.83902250131
6	2783	89	365.91428453412
6	2953	90	355.40800441025
6	2997	91	344.76017641024
6	3083	92	337.99155466545
6	3132	93	329.82701190604
6	3181	94	326.21934090252
6	3230	95	324.74857856745
6	3279	96	323.33843167022
6	3328	97	321.94962962132
6	3377	98	320.54955517509
6	3426	99	319.26224250276
6	3475	100	318.53007021382
6	3524	101	317.50492871463
6	3573	102	316.20678742105
6	3622	103	314.69499729761
6	3671	104	313.25453545155
6	3720	105	311.7024684613
6	3775	106	310.15368478985
6	3830	107	308.67790854736
6	3885	108	307.58025883957
6	3940	109	306.3134224994
6	3996	110	305.14835316262
6	4052	111	304.33653412464
6	4108	112	303.54091392479
6	4164	113	302.72404107975
6	4221	114	301.95539464651
6	4277	115	301.36499538208
6	4333	116	300.98707551605
6	4390	117	297.59807562859
6	4447	118	291.5401625832
6	4509	119	284.28585436928
6	4571	120	274.96062727735
6	4633	121	266.06780633834
6	4695	122	260.22802200692
6	4757	123	248.34422461038
6	4820	124	238.71140872075
6	4882	125	227.41206194607
6	4944	126	219.52359702777
6	5006	127	215.86372160843
6	5068	128	215.90600791056
6	5130	129	220.06260746832
6	5192	130	224.76025258164
6	5254	131	226.93511862733
6	5321	132	230.57087696675
6	5388	133	233.52778407959
6	5455	134	235.59864094505
6	5522	135	237.36835291198
6	5590	136	239.14300885039
6	5658	137	240.90800281446
6	5720	138	242.66276350809
6	5781	139	244.52814440321
5	219	14	241.91314494319
5	240	15	245.16805859255
5	261	16	248.1829534557
5	282	17	251.34744588796
5	303	18	254.45283825523
5	324	19	257.19126394385
5	345	20	259.95767502751
5	366	21	262.90146918591
5	387	22	265.91677244736
5	408	23	268.8276367006
5	429	24	271.7068359096
5	450	25	274.97657993008
5	471	26	278.31047915771
5	492	27	281.46755883987
5	518	28	284.66801438393
5	544	29	287.70372752176
5	570	30	290.61425631121
5	596	31	293.54381804472
5	622	32	296.77003880436
5	648	33	299.79985279826
5	674	34	302.89784601878
5	700	35	305.81973823777
5	726	36	308.90897810083
5	752	37	311.99182970572
5	778	38	314.98918016199
5	804	39	317.99727314752
5	830	40	321.15444664311
5	861	41	324.18082610917
5	892	42	327.33806758894
5	923	43	330.58772780504
5	954	44	333.76223691174
5	985	45	336.69292541178
5	1016	46	339.80644819074
5	1048	47	343.01248072217
5	1080	48	346.25569225558
5	1112	49	349.83606198137
5	1144	50	352.97485965564
5	1176	51	355.8919198052
5	1208	52	358.8167620489
5	1240	53	361.96112127789
5	1272	54	365.02586938302
5	1305	55	368.18029844857
5	1338	56	371.09649284738
5	1371	57	374.04833603785
5	1404	58	376.95698870828
5	1437	59	379.84389637399
5	1470	60	382.83788264153
5	1502	61	385.73163481639
5	1535	62	388.8953906933
5	1568	63	391.83400739022
5	1601	64	394.86457852758
5	1634	65	397.97068926353
5	1667	66	401.08019645781
5	1706	67	404.18461455861
5	1745	68	407.46097731763
5	1784	69	410.36165370666
5	1823	70	413.43245043651
5	1862	71	416.47114759715
5	1901	72	419.6354655779
5	1940	73	422.56172947
5	1980	74	425.56966670479
5	2019	75	428.54068425414
5	2058	76	431.63777381931
5	2097	77	434.70682684623
5	2136	78	437.63357391682
5	2175	79	440.82675570018
5	2219	80	443.69696763083
5	2263	81	446.75530923514
5	2307	82	449.8443195688
5	2351	83	453.06627563346
5	2395	84	456.098842438
5	2439	85	459.38536283542
5	2524	86	462.36106615341
5	2568	87	465.49699250429
5	2739	88	468.80723709066
5	2783	89	472.0779148154
5	2953	90	475.22331349446
5	2997	91	478.41108916113
5	3083	92	480.437497523
5	3132	93	483.76468018964
5	3181	94	491.09961650912
5	3230	95	501.99544161863
5	3279	96	512.44221034843
5	3328	97	522.73085037937
5	3377	98	533.10299953127
5	3426	99	542.63977743514
5	3475	100	548.06391770594
5	3524	101	555.60992822943
5	3573	102	565.12106245964
5	3622	103	576.03876124812
5	3671	104	586.42749871594
5	3720	105	597.62114229507
5	3775	106	608.79110629033
5	3830	107	619.43453428972
5	3885	108	627.350880479
5	3940	109	637.72418126311
5	3996	110	649.24869437878
5	4052	111	660.47582403417
5	4108	112	671.47893029567
5	4164	113	682.77595206301
5	4221	114	693.40602201873
5	4277	115	701.57100556805
5	4333	116	706.79748479143
5	4390	117	712.29152730643
5	4447	118	717.82619557378
5	4509	119	723.84610699524
5	4571	120	731.25348884729
5	4633	121	739.49599016224
5	4695	122	749.28717199122
5	4757	123	750.22309408327
5	4820	124	750.06374670449
5	4882	125	748.82216056182
5	4944	126	740.66998197393
5	5006	127	730.14498058338
5	5068	128	717.72432334762
5	5130	129	707.29369572819
5	5192	130	698.14476835088
5	5254	131	685.37073567281
5	5321	132	671.25866504932
5	5388	133	655.14949225134
5	5455	134	638.12828722656
5	5522	135	621.87952907236
5	5590	136	605.58537743127
5	5658	137	589.37993801426
5	5720	138	573.26845622389
5	5781	139	556.14130581938
vector 50 RSUExampleScenario.node[10].veinsmobility posx ETV
vector 51 RSUExampleScenario.node[10].veinsmobility posy ETV
vector 52 RSUExampleScenario.node[10].veinsmobility speed ETV
vector 53 RSUExampleScenario.node[10].veinsmobility acceleration ETV
vector 54 RSUExampleScenario.node[10].veinsmobility co2emission ETV
vector 55 RSUExampleScenario.node[11].veinsmobility posx ETV
vector 56 RSUExampleScenario.node[11].veinsmobility posy ETV
vector 57 RSUExampleScenario.node[11].veinsmobility speed ETV
vector 58 RSUExampleScenario.node[11].veinsmobility acceleration ETV
vector 59 RSUExampleScenario.node[11].veinsmobility co2emission ETV
vector 60 RSUExampleScenario.node[12].veinsmobility posx ETV
vector 61 RSUExampleScenario.node[12].veinsmobility posy ETV
vector 62 RSUExampleScenario.node[12].veinsmobility speed ETV
4	43	3	3.7547761313703
4	59	4	4.8771001745242
4	75	5	5.4857505436358
4	91	6	7.7989912180538
4	107	7	6.0356828869265
4	123	8	0.973
4	139	9	0.973
4	155	10	0.973
4	171	11	2.4320023028197
4	187	12	2.3606415898305
4	203	13	1.8139042068374
4	219	14	1.8093141593836
4	240	15	3.7398470039904
4	261	16	0.973
4	282	17	1.3222247532535
4	303	18	0.973
4	324	19	3.9230734537911
4	345	20	1.5096006908452
4	366	21	1.8390346098048
4	387	22	6.430232999833
4	408	23	5.4204209452457
4	429	24	2.4344546316184
4	450	25	2.5651085836338
4	471	26	0.973
4	492	27	0.973
4	518	28	4.7510961420279
4	544	29	4.0660578752983
4	570	30	7.9297163807621
4	596	31	3.7634466059458
4	622	32	4.3565998682818
4	648	33	0.973
4	674	34	2.8226295181449
4	700	35	0.973
4	726	36	6.6710951240992
4	752	37	7.6994789667581
4	778	38	2.1174225940369
4	804	39	1.2595428515247
4	830	40	0.973
4	861	41	4.7661697712961
4	892	42	0.973
4	923	43	0.973
4	954	44	4.7577479999582
4	985	45	7.0363567688161
4	1016	46	6.3873449823592
4	1048	47	7.1362516065131
4	1080	48	1.263310700017
4	1112	49	0.973
4	1144	50	3.1600980489306
4	1176	51	3.1459788004134
4	1208	52	0.973
4	1240	53	0.973
4	1272	54	2.5183379925391
4	1305	55	3.5662657274416
4	1338	56	1.5356558092265
4	1371	57	0.973
4	1404	58	2.4237242336929
4	1437	59	3.0769608347299
4	1470	60	2.1711722764494
4	1502	61	2.1820208769199
4	1535	62	1.2597908633248
4	1568	63	2.6938958256851
4	1601	64	0.973
4	1634	65	3.3035832284682
4	1667	66	0.973
4	1706	67	4.7456353985358
4	1745	68	0.973
4	1784	69	2.1692685530086
4	1823	70	0.973
4	1862	71	1.7134325839549
4	1901	72	1.7638053425209
4	1940	73	2.7839058821508
4	1980	74	0.973
4	2019	75	0.973
4	2058	76	0.973
4	2097	77	0.973
4	2136	78	0.973
4	2175	79	0.973
4	2219	80	0.973
4	2263	81	0.973
4	2307	82	0.973
4	2351	83	0.973
4	2395	84	0.973
4	2439	85	0.973
4	2524	86	0.973
4	2568	87	0.973
4	2739	88	0.973
4	2783	89	0.973
4	2953	90	0.973
4	2997	91	0.973
4	3083	92	0.973
4	3132	93	0.973
4	3181	94	0.973
4	3230	95	0.973
4	3279	96	0.973
4	3328	97	0.973
4	3377	98	0.973
4	3426	99	0.973
4	3475	100	0.973
4	3524	101	0.973
4	3573	102	0.973
4	3622	103	0.973
4	3671	104	0.973
4	3720	105	0.973
4	3775	106	0.973
4	3830	107	0.973
4	3885	108	0.973
4	3940	109	0.973
4	3996	110	0.973
4	4052	111	0.973
4	4108	112	0.973
4	4164	113	0.973
4	4221	114	0.973
4	4277	115	0.973
4	4333	116	0.973
4	4390	117	0.973
4	4447	118	0.973
4	4509	119	0.973
4	4571	120	0.973
4	4633	121	0.973
4	4695	122	0.973
4	4757	123	0.973
4	4820	124	1.695327704357
4	4882	125	2.949007722968
4	4944	126	3.4831156587951
4	5006	127	5.266118113631
4	5068	128	6.2956292108017
4	5130	129	8.8394418364491
4	5192	130	1.171420452937
4	5254	131	0.973
4	5321	132	2.277271432432
4	5388	133	4.5271380512404
4	5455	134	1.9244977519783
4	5522	135	1.3165024918669
4	5590	136	1.154683500129
4	5658	137	0.973
4	5720	138	4.4582235678596
4	5781	139	0.973
4	5842	140	0.973
4	5898	141	4.4728948426269
4	5953	142	2.4135055456482
4	6008	143	0.973
4	6063	144	2.4712841630996
4	6124	145	2.2249460048484
4	6185	146	0.973
4	6246	147	4.6834180728166
4	6307	148	0.973
4	6368	149	4.6804262983413
4	6429	150	0.973
4	6490	151	1.6243438442143
4	6551	152	3.4412734095787
4	6612	153	1.8842308383444
4	6673	154	1.8588956774483
4	6734	155	1.5173232412943
4	6795	156	2.7097223441558
4	6862	157	1.8570263126142
4	6930	158	1.1651425671836
4	6998	159	0.973
4	7066	160	2.2151970337707
4	7134	161	0.973
4	7202	162	3.1003836525651
4	7270	163	3.0337743467348
4	7338	164	1.7247509517257
4	7406	165	0.973
4	7474	166	3.8261806235015
4	7542	167	2.6768588307054
4	7610	168	1.3417318799724
4	7678	169	0.973
4	7752	170	3.1228769584736
3	43	3	2.3097215975402
3	59	4	2.1753469938878
3	75	5	1.9198876491515
3	91	6	2.3290013018763
3	107	7	1.4178105275333
3	123	8	-0.37967657484114
3	139	9	-0.26539824760985
3	155	10	-0.28567485553212
3	171	11	0.22627560230903
3	187	12	0.19142821677961
3	203	13	-0.0025797226931914
3	219	14	-0.0040860524866719
3	240	15	0.62818098375574
3	261	16	-0.82864982441533
3	282	17	-0.17134158615954
3	303	18	-3.7706846935517
3	324	19	1.1191589945591
3	345	20	-0.036361847422086
3	366	21	0.11671101350803
3	387	22	1.8430399890523
3	408	23	1.2568465598107
3	429	24	0.2007331083063
3	450	25	0.23401913109701
3	471	26	-3.3476374681553
3	492	27	-4.3725450053462
3	518	28	2.065569831524
3	544	29	1.3205505888676
3	570	30	2.475277706515
3	596	31	0.73923335413944
3	622	32	0.86525854810607
3	648	33	-0.52660172043834
3	674	34	0.3463471259055
3	700	35	-4.5
3	726	36	2.1872653045459
3	752	37	2.0997949530138
3	778	38	0.1034710326866
3	804	39	-0.19733900704887
3	830	40	-0.3612251302693
3	861	41	0.99056635394227
3	892	42	-4.2179038755953
3	923	43	-3.9929810992473
3	954	44	2.2328853990184
3	985	45	2.5772626519203
3	1016	46	1.8253652398771
3	1048	47	1.765726532121
3	1080	48	-0.20436282765586
3	1112	49	-0.75963758639991
3	1144	50	0.46374235481489
3	1176	51	0.42987335824873
3	1208	52	-0.42290495529305
3	1240	53	-0.27934064946603
3	1272	54	0.24066877767909
3	1305	55	0.56403360827826
3	1338	56	-0.1139339807909
3	1371	57	-1.085014008428
3	1404	58	0.2275443459861
3	1437	59	0.43491504483391
3	1470	60	0.11313430701848
3	1502	61	0.11240000391845
3	1535	62	-0.2018297615461
3	1568	63	0.28388725474942
3	1601	64	-0.80547373222653
3	1634	65	0.51315661247354
3	1667	66	-0.43729765273165
3	1706	67	0.95912287801039
3	1745	68	-0.95442967428826
3	1784	69	0.12886185280513
3	1823	70	-0.26042735723313
3	1862	71	-0.026737399538979
3	1901	72	-0.0079557842342197
3	1940	73	0.34638873778749
3	1980	74	-4.5
3	2019	75	-4.5
3	2058	76	-2.610433347309
3	2097	77	0
3	2136	78	0
3	2175	79	0
3	2219	80	0
3	2263	81	0
3	2307	82	0
3	2351	83	0
3	2395	84	0
3	2439	85	0
3	2524	86	0
3	2568	87	0
3	2739	88	0
3	2783	89	0
3	2953	90	0
3	2997	91	0
3	3083	92	0
3	3132	93	0
3	3181	94	0
3	3230	95	0
3	3279	96	0
3	3328	97	0
3	3377	98	0
3	3426	99	0
3	3475	100	0
3	3524	101	0
3	3573	102	0
3	3622	103	0
3	3671	104	0
3	3720	105	0
3	3775	106	0
3	3830	107	0
3	3885	108	0
3	3940	109	0
3	3996	110	0
3	4052	111	0
3	4108	112	0
3	4164	113	0
3	4221	114	0
3	4277	115	0
3	4333	116	0
3	4390	117	0
3	4447	118	0
3	4509	119	0
3	4571	120	0
3	4633	121	0
3	4695	122	0
3	4757	123	0
3	4820	124	1.4611877845367
3	4882	125	1.9999393696431
3	4944	126	1.6982027534861
3	5006	127	2.1415032495977
3	5068	128	2.0638961436925
3	5130	129	2.4588298490038
3	5192	130	-0.22970810116271
3	5254	131	-0.47188077182509
3	5321	132	0.17944643385708
3	5388	133	0.90438729119487
3	5455	134	0.019008091860451
3	5522	135	-0.1845680948114
3	5590	136	-0.23785096853971
3	5658	137	-0.30908167692833
3	5720	138	0.86543385481928
3	5781	139	-0.79857899972703
3	5842	140	-0.34430311752949
3	5898	141	0.89571916116402
3	5953	142	0.18187282197177
3	6008	143	-0.93367840172723
3	6063	144	0.23543684592005
3	6124	145	0.14122024693061
3	6185	146	-0.38385077011772
3	6246	147	0.94733568220399
3	6307	148	-0.88228736293968
3	6368	149	0.94014076031744
3	6429	150	-0.62219355283305
3	6490	151	-0.069395463983529
3	6551	152	0.53554889645893
3	6612	153	0.0058721822453656
3	6673	154	-0.0026589288609102
3	6734	155	-0.11636837630067
3	6795	156	0.27797175992746
3	6862	157	-0.0079002724494774
3	6930	158	-0.23760560082737
3	6998	159	-0.57156471787021
3	7066	160	0.1397743341513
3	7134	161	-0.39782901199069
3	7202	162	0.45035962976981
3	7270	163	0.40071687819436
3	7338	164	-0.045397029723972
3	7406	165	-0.74409127682448
3	7474	166	0.6808839159552
3	7542	167	0.27020388992969
3	7610	168	-0.17724607402924
3	7678	169	-0.55151819535531
3	7752	170	0.43964645825326
2	27	2	2.05
2	43	3	4.3597215975402
2	59	4	6.535068591428
2	75	5	8.4549562405795
2	91	6	10.783957542456
2	107	7	12.201768069989
2	123	8	11.822091495148
2	139	9	11.556693247538
2	155	10	11.271018392006
2	171	11	11.497293994315
2	187	12	11.688722211095
2	203	13	11.686142488401
2	219	14	11.682056435915
2	240	15	12.31023741967
2	261	16	11.481587595255
2	282	17	11.310246009096
2	303	18	7.5395613155438
2	324	19	8.6587203101029
2	345	20	8.6223584626808
2	366	21	8.7390694761888
2	387	22	10.582109465241
2	408	23	11.838956025052
2	429	24	12.039689133358
2	450	25	12.273708264455
2	471	26	8.9260707962999
2	492	27	4.5535257909537
2	518	28	6.6190956224777
2	544	29	7.9396462113454
2	570	30	10.41492391786
2	596	31	11.154157272
2	622	32	12.019415820106
2	648	33	11.492814099668
2	674	34	11.839161225573
2	700	35	7.3391612255731
2	726	36	9.5264265301189
2	752	37	11.626221483133
2	778	38	11.729692515819
2	804	39	11.53235350877
2	830	40	11.171128378501
2	861	41	12.161694732443
2	892	42	7.9437908568481
2	923	43	3.9508097576008
2	954	44	6.1836951566192
2	985	45	8.7609578085395
2	1016	46	10.586323048417
2	1048	47	12.352049580538
2	1080	48	12.147686752882
2	1112	49	11.388049166482
2	1144	50	11.851791521297
2	1176	51	12.281664879546
2	1208	52	11.858759924252
2	1240	53	11.579419274786
2	1272	54	11.820088052466
2	1305	55	12.384121660744
2	1338	56	12.270187679953
2	1371	57	11.185173671525
2	1404	58	11.412718017511
2	1437	59	11.847633062345
2	1470	60	11.960767369363
2	1502	61	12.073167373282
2	1535	62	11.871337611736
2	1568	63	12.155224866485
2	1601	64	11.349751134259
2	1634	65	11.862907746732
2	1667	66	11.425610094001
2	1706	67	12.384732972011
2	1745	68	11.430303297723
2	1784	69	11.559165150528
2	1823	70	11.298737793295
2	1862	71	11.272000393756
2	1901	72	11.264044609521
2	1940	73	11.610433347309
2	1980	74	7.110433347309
2	2019	75	2.610433347309
2	2058	76	0
2	2097	77	0
2	2136	78	0
2	2175	79	0
2	2219	80	0
2	2263	81	0
2	2307	82	0
2	2351	83	0
2	2395	84	0
2	2439	85	0
2	2524	86	0
2	2568	87	0
2	2739	88	0
2	2783	89	0
2	2953	90	0
2	2997	91	0
2	3083	92	0
2	3132	93	0
2	3181	94	0
2	3230	95	0
2	3279	96	0
2	3328	97	0
2	3377	98	0
2	3426	99	0
2	3475	100	0
2	3524	101	0
2	3573	102	0
2	3622	103	0
2	3671	104	0
2	3720	105	0
2	3775	106	0
2	3830	107	0
2	3885	108	0
2	3940	109	0
2	3996	110	0
2	4052	111	0
2	4108	112	0
2	4164	113	0
2	4221	114	0
2	4277	115	0
2	4333	116	0
2	4390	117	0
2	4447	118	0
2	4509	119	0
2	4571	120	0
2	4633	121	0
2	4695	122	0
2	4757	123	0
2	4820	124	1.4611877845367
2	4882	125	3.4611271541798
2	4944	126	5.159329907666
2	5006	127	7.3008331572637
2	5068	128	9.3647293009562
2	5130	129	11.82355914996
2	5192	130	11.593851048797
2	5254	131	11.121970276972
2	5321	132	11.301416710829
2	5388	133	12.205804002024
2	5455	134	12.224812093885
2	5522	135	12.040243999073
2	5590	136	11.802393030534
2	5658	137	11.493311353605
2	5720	138	12.358745208424
2	5781	139	11.560166208697
2	5842	140	11.215863091168
2	5898	141	12.111582252332
2	5953	142	12.293455074304
2	6008	143	11.359776672577
2	6063	144	11.595213518497
2	6124	145	11.736433765427
2	6185	146	11.352582995309
2	6246	147	12.299918677513
2	6307	148	11.417631314574
2	6368	149	12.357772074891
2	6429	150	11.735578522058
2	6490	151	11.666183058075
2	6551	152	12.201731954534
2	6612	153	12.207604136779
2	6673	154	12.204945207918
2	6734	155	12.088576831617
2	6795	156	12.366548591545
2	6862	157	12.358648319095
2	6930	158	12.121042718268
2	6998	159	11.549478000398
2	7066	160	11.689252334549
2	7134	161	11.291423322558
2	7202	162	11.741782952328
2	7270	163	12.142499830523
2	7338	164	12.097102800799
2	7406	165	11.353011523974
2	7474	166	12.033895439929
2	7542	167	12.304099329859
2	7610	168	12.12685325583
2	7678	169	11.575335060474
2	7752	170	12.014981518728
1	11	1	280.98021276596
1	27	2	279.39186798702
1	43	3	275.98552974236
1	59	4	271.03637422808
1	75	5	265.77913215113
1	91	6	254.51231138095
1	107	7	243.74735282511
1	123	8	231.34436658933
1	139	9	222.09211866103
1	155	10	216.55257854713
1	171	11	218.5057636042
1	187	12	218.89041808324
1	203	13	226.60482104431
1	219	14	237.72772605284
1	240	15	250.76102753219
1	261	16	262.02267999212
1	282	17	269.83126903333
1	303	18	275.93044591954
1	324	19	284.41988925514
1	345	20	292.95699058393
1	366	21	297.77221326312
1	387	22	298.53541197294
1	408	23	299.3892564728
1	429	24	300.25757816644
1	450	25	301.14277769522
1	471	26	301.78654023971
1	492	27	302.11494782425
1	518	28	302.81588878568
1	544	29	303.68461665363
1	570	30	305.08298316798
1	596	31	306.61487014617
1	622	32	308.26558979548
1	648	33	309.84398714391
1	674	34	311.46995103091
1	700	35	312.47789499639
1	726	36	313.77379807212
1	752	37	315.34291465208
1	778	38	316.91219745383
1	804	39	318.45507882098
1	830	40	319.94963288682
1	861	41	321.57671205859
1	892	42	322.63948965106
1	923	43	323.16805745429
1	954	44	325.1092587292
1	985	45	332.09787811659
1	1016	46	342.18308120035
1	1048	47	354.01615526756
1	1080	48	365.65345287997
1	1112	49	376.56302933442
1	1144	50	387.91686385283
1	1176	51	399.6825104559
1	1208	52	411.04302059747
1	1240	53	422.13592668082
1	1272	54	433.4593897623
1	1305	55	445.32318839048
1	1338	56	457.09012430032
1	1371	57	467.84538421266
1	1404	58	478.81944256787
1	1437	59	490.21169955677
1	1470	60	501.71274241818
1	1502	61	513.32186507269
1	1535	62	524.73691550202
1	1568	63	536.42494168482
1	1601	64	547.33845335429
1	1634	65	558.74539792923
1	1667	66	569.73185284059
1	1706	67	581.64056574667
1	1745	68	592.61055469369
1	1784	69	603.68431784154
1	1823	70	614.50858971267
1	1862	71	625.30987465757
1	1901	72	636.12934403233
1	1940	73	647.28153069206
1	1980	74	654.11132571769
1	2019	75	656.6187291092
1	2058	76	656.6187291092
1	2097	77	656.6187291092
1	2136	78	656.6187291092
1	2175	79	656.6187291092
1	2219	80	656.6187291092
1	2263	81	656.6187291092
1	2307	82	656.6187291092
1	2351	83	656.6187291092
1	2395	84	656.6187291092
1	2439	85	656.6187291092
1	2524	86	656.6187291092
1	2568	87	656.6187291092
1	2739	88	656.6187291092
1	2783	89	656.6187291092
1	2953	90	656.6187291092
1	2997	91	656.6187291092
1	3083	92	656.6187291092
1	3132	93	656.6187291092
1	3181	94	656.6187291092
1	3230	95	656.6187291092
1	3279	96	656.6187291092
1	3328	97	656.6187291092
1	3377	98	656.6187291092
1	3426	99	656.6187291092
1	3475	100	656.6187291092
1	3524	101	656.6187291092
1	3573	102	656.6187291092
1	3622	103	656.6187291092
1	3671	104	656.6187291092
1	3720	105	656.6187291092
1	3775	106	656.6187291092
1	3830	107	656.6187291092
1	3885	108	656.6187291092
1	3940	109	656.6187291092
1	3996	110	656.6187291092
1	4052	111	656.6187291092
1	4108	112	656.6187291092
1	4164	113	656.6187291092
1	4221	114	656.6187291092
1	4277	115	656.6187291092
1	4333	116	656.6187291092
1	4390	117	656.6187291092
1	4447	118	656.6187291092
1	4509	119	656.6187291092
1	4571	120	656.6187291092
1	4633	121	656.6187291092
1	4695	122	656.6187291092
1	4757	123	656.6187291092
1	4820	124	658.02224596603
1	4882	125	661.34676753399
1	4944	126	666.30246629633
1	5006	127	673.3151463321
1	5068	128	682.31093949306
1	5130	129	693.7061714368
1	5192	130	704.88001682012
1	5254	131	715.59907606193
1	5321	132	726.47165028109
1	5388	133	738.2027240022
1	5455	134	749.95206651796
1	5522	135	761.52401949622
1	5590	136	772.86737243748
1	5658	137	783.86635327001
1	5720	138	795.60977244484
1	5781	139	806.59437284156
1	5842	140	817.32608697857
1	5898	141	828.95383685984
1	5953	142	840.75619412436
1	6008	143	851.66217148586
1	6063	144	862.79418048386
1	6124	145	874.06176827539
1	6185	146	884.94886216392
1	6246	147	896.74213614238
1	6307	148	907.6894649669
1	6368	149	919.53820930933
1	6429	150	930.7972728768
1	6490	151	941.99081277389
1	6551	152	953.69820436604
1	6612	153	965.41123023513
1	6673	154	977.13156692075
1	6734	155	988.75456250934
1	6795	156	1000.6264331484
1	6862	157	1012.4896818675
1	6930	158	1024.1093614938
1	6998	159	1035.1601393743
1	7066	160	1046.3446562099
1	7134	161	1057.2125824289
1	7202	162	1068.5410911302
1	7270	163	1080.2562127216
1	7338	164	1091.9334217474
1	7406	165	1102.9032179711
1	7474	166	1114.5309152102
1	7542	167	1126.3670786403
1	7610	168	1138.0320820782
1	7678	169	1149.126383249
1	7752	170	1160.6156265895
0	11	1	730.64574468085
0	27	2	731.91854398719
0	43	3	734.47089884094
0	59	4	738.47401719297
0	75	5	745.08956637917
0	91	6	748.55689486082
0	107	7	750.51319690309
0	123	8	750.72440634757
0	139	9	743.58036633033
0	155	10	733.69284185119
0	171	11	721.49716699214
0	187	12	709.5144474009
0	203	13	700.39754690664
0	219	14	695.44359563931
0	240	15	695.13728071004
0	261	16	699.92148834731
0	282	17	708.4950955849
0	303	18	712.24012915793
0	324	19	712.83692423902
0	345	20	713.22633749033
0	366	21	706.91131971539
0	387	22	696.35658957606
0	408	23	684.54826474383
0	429	24	672.5397261645
0	450	25	660.29777393695
0	471	26	651.39479776108
0	492	27	646.85305340814
0	518	28	640.27134975916
0	544	29	632.37908870425
0	570	30	622.05913348195
0	596	31	611.01102992382
0	622	32	599.10589469482
0	648	33	587.72235425774
0	674	34	575.9957597628
0	700	35	568.7263792733
0	726	36	559.28545867001
0	752	37	547.76149963624
0	778	38	536.13766406681
0	804	39	524.70938657926
0	830	40	513.63907427383
0	861	41	501.58713517783
0	892	42	493.71503464379
0	923	43	489.79987975575
0	954	44	484.02704836458
0	985	45	479.04431273183
0	1016	46	475.84691730532
0	1048	47	472.30390346868
0	1080	48	468.8195082703
0	1112	49	465.55300456125
0	1144	50	462.1534827997
0	1176	51	458.63065783681
0	1208	52	455.22913728566
0	1240	53	451.90774171942
0	1272	54	448.51731365749
0	1305	55	444.96510039017
0	1338	56	441.48756756671
0	1371	57	438.41613605461
0	1404	58	435.28222121457
0	1437	59	432.02887937115
0	1470	60	428.74447102078
0	1502	61	425.42919780195
0	1535	62	422.16934672568
0	1568	63	418.83154064524
0	1601	64	415.71491641463
0	1634	65	412.45738016634
0	1667	66	409.31992518189
0	1706	67	405.91909652815
0	1745	68	402.70861575702
0	1784	69	399.39389897006
0	1823	70	396.15386257061
0	1862	71	392.93041692443
0	1901	72	389.79688894289
0	1940	73	386.56699958849
0	1980	74	384.58895860702
0	2019	75	383.86276599848
0	2058	76	383.86276599848
0	2097	77	383.86276599848
0	2136	78	383.86276599848
0	2175	79	383.86276599848
0	2219	80	383.86276599848
0	2263	81	383.86276599848
0	2307	82	383.86276599848
0	2351	83	383.86276599848
0	2395	84	383.86276599848
0	2439	85	383.86276599848
0	2524	86	383.86276599848
0	2568	87	383.86276599848
0	2739	88	383.86276599848
0	2783	89	383.86276599848
0	2953	90	383.86276599848
0	2997	91	383.86276599848
0	3083	92	383.86276599848
0	3132	93	383.86276599848
0	3181	94	383.86276599848
0	3230	95	383.86276599848
0	3279	96	383.86276599848
0	3328	97	383.86276599848
0	3377	98	383.86276599848
0	3426	99	383.86276599848
0	3475	100	383.86276599848
0	3524	101	383.86276599848
0	3573	102	383.86276599848
0	3622	103	383.86276599848
0	3671	104	383.86276599848
0	3720	105	383.86276599848
0	3775	106	383.86276599848
0	3830	107	383.86276599848
0	3885	108	383.86276599848
0	3940	109	383.86276599848
0	3996	110	383.86276599848
0	4052	111	383.86276599848
0	4108	112	383.86276599848
0	4164	113	383.86276599848
0	4221	114	383.86276599848
0	4277	115	383.86276599848
0	4333	116	383.86276599848
0	4390	117	383.86276599848
0	4447	118	383.86276599848
0	4509	119	383.86276599848
0	4571	120	383.86276599848
0	4633	121	383.86276599848
0	4695	122	383.86276599848
0	4757	123	383.86276599848
0	4820	124	383.45628032056
0	4882	125	382.49343445469
0	4944	126	381.05816806573
0	5006	127	379.02716004153
0	5068	128	376.42438666065
0	5130	129	373.27056711305
0	5192	130	370.17801997002
0	5254	131	367.21134243896
0	5321	132	364.12791135111
0	5388	133	360.75671180159
0	5455	134	357.38026228487
0	5522	135	354.05478981791
0	5590	136	350.79501094048
0	5658	137	347.46676285311
0	5720	138	343.61550969591
0	5781	139	340.01311108195
0	5842	140	336.75789206308
0	5898	141	333.36860583378
0	5953	142	329.92842459852
0	6008	143	326.74952246649
0	6063	144	323.50473605582
0	6124	145	320.2204307922
0	6185	146	317.00278581819
0	6246	147	313.50877148925
0	6307	148	310.26538684082
0	6368	149	306.75493820816
0	6429	150	303.44457302858
0	6490	151	300.15735624868
0	6551	152	296.71923618618
0	6612	153	293.27946150057
0	6673	154	289.87446969207
0	6734	155	286.55166036498
0	6795	156	283.0887963342
0	6862	157	279.62455330698
0	6930	158	276.17492367221
0	6998	159	272.81753974566
0	7066	160	269.41952401716
0	7134	161	266.35948298278
0	7202	162	263.27149385079
0	7270	163	260.07811958523
0	7338	164	256.91851809177
0	7406	165	253.99350955727
0	7474	166	250.89307697242
0	7542	167	247.53215053561
0	7610	168	244.21708316492
0	7678	169	240.9165740385
0	7752	170	237.40111534245
vector 63 RSUExampleScenario.node[12].veinsmobility acceleration ETV
vector 64 RSUExampleScenario.node[12].veinsmobility co2emission ETV
29	2263	81	6.6881035370414
29	2307	82	1.1707910712986
29	2351	83	1.8695862833208
29	2395	84	4.9553200317769
29	2439	85	1.8057713724366
29	2524	86	4.7438686150596
29	2568	87	0.973
29	2739	88	5.6172065714488
29	2783	89	0.973
29	2953	90	5.1222181852268
29	2997	91	1.569139607216
29	3083	92	5.2886202616227
29	3132	93	0.973
29	3181	94	8.0202258998943
29	3230	95	0.973
29	3279	96	4.9918741338344
29	3328	97	1.1795425377774
29	3377	98	3.2280120618965
29	3426	99	2.7151485687848
29	3475	100	0.973
29	3524	101	7.0715933618916
29	3573	102	0.973
29	3622	103	3.6141260643563
29	3671	104	1.9082514366374
29	3720	105	6.7697514729518
29	3775	106	2.5687935182336
29	3830	107	2.0000052193868
29	3885	108	0.973
29	3940	109	1.7289396927523
29	3996	110	4.6243094786804
29	4052	111	5.666901059698
29	4108	112	2.4117367347179
29	4164	113	3.3009144315868
29	4221	114	0.973
29	4277	115	4.4625578946812
29	4333	116	4.9320215880616
29	4390	117	0.973
29	4447	118	2.2440928346953
29	4509	119	2.5516419559577
29	4571	120	7.0223857984082
29	4633	121	0.973
29	4695	122	7.7521546016369
29	4757	123	0.973
29	4820	124	4.3188019833107
29	4882	125	0.973
29	4944	126	4.8391763115687
29	5006	127	2.1907724181921
29	5068	128	2.3811662152705
29	5130	129	3.6306669331265
29	5192	130	2.1982258777618
29	5254	131	1.3249814935425
29	5321	132	2.4835209863886
29	5388	133	5.5171921705654
29	5455	134	0.973
29	5522	135	5.7853698591608
29	5590	136	0.973
29	5658	137	2.5850631346807
29	5720	138	8.0389720459037
29	5781	139	0.973
29	5842	140	3.5974766947023
29	5898	141	6.5338278212201
29	5953	142	1.0370045328856
29	6008	143	1.1097447812668
29	6063	144	2.4137949197619
29	6124	145	2.0710450339668
29	6185	146	2.8591048650531
29	6246	147	0.79187912759103
29	6307	148	3.7165363749272
29	6368	149	2.5144420298908
29	6429	150	6.4897119817269
29	6490	151	0.973
29	6551	152	0.973
29	6612	153	7.8122104669998
29	6673	154	1.6829431531865
29	6734	155	3.0988594103938
29	6795	156	0.973
29	6862	157	7.533215608662
29	6930	158	0.973
29	6998	159	2.5822755279845
29	7066	160	1.0572841930732
29	7134	161	5.0926641485341
29	7202	162	0.973
29	7270	163	6.3814997407734
29	7338	164	1.1304618632346
29	7406	165	5.5942911975399
29	7474	166	0.973
29	7542	167	0.973
29	7610	168	0.973
29	7678	169	9.2178464398769
29	7752	170	4.1133212369967
29	7826	171	1.695741036003
29	7895	172	1.9174627806839
28	2263	81	0.88981759718154
28	2307	82	-0.31851076858584
28	2351	83	-0.15851543333847
28	2395	84	0.50704208416864
28	2439	85	-0.18029856204521
28	2524	86	0.4457036151085
28	2568	87	-1.1439517272636
28	2739	88	0.66661782586016
28	2783	89	-0.61122239336837
28	2953	90	0.55990884364583
28	2997	91	-0.22662860448472
28	3083	92	0.57486947439611
28	3132	93	-0.99564108802006
28	3181	94	1.1567819823045
28	3230	95	-0.74193504680879
28	3279	96	0.513983797119
28	3328	97	-0.3172986012185
28	3377	98	0.13431783120614
28	3426	99	0.020071237231605
28	3475	100	-0.75881938438397
28	3524	101	0.9663736609742
28	3573	102	-0.74298301520757
28	3622	103	0.23236447153613
28	3671	104	-0.14767969979439
28	3720	105	0.88257665948477
28	3775	106	-0.025068038515744
28	3830	107	-0.14464260425884
28	3885	108	-0.81973507932853
28	3940	109	-0.18205153050367
28	3996	110	0.45827460216824
28	4052	111	0.64838647705037
28	4108	112	-0.056248415447769
28	4164	113	0.1320351333823
28	4221	114	-1.2117495741229
28	4277	115	0.42537009036168
28	4333	116	0.50117095555179
28	4390	117	-0.74748488077894
28	4447	118	-0.065784376696683
28	4509	119	0.0045697021763758
28	4571	120	0.94822271210142
28	4633	121	-1.0619614062831
28	4695	122	1.1034006661968
28	4757	123	-0.61022211126983
28	4820	124	0.36972846959252
28	4882	125	-0.47058931656647
28	4944	126	0.48349940916523
28	5006	127	-0.09632847884204
28	5068	128	-0.052693938068117
28	5130	129	0.21484298473224
28	5192	130	-0.096466542920098
28	5254	131	-0.28402733255643
28	5321	132	-0.024175342754461
28	5388	133	0.61462791806552
28	5455	134	-0.91350067083258
28	5522	135	0.68811745494604
28	5590	136	-0.83558610728942
28	5658	137	0.012572204438037
28	5720	138	1.1516520448728
28	5781	139	-1.0891717872582
28	5842	140	0.23149889376946
28	5898	141	0.82930364252534
28	5953	142	-0.35264780116268
28	6008	143	-0.33189215033781
28	6063	144	-0.038776576914824
28	6124	145	-0.11275651021861
28	6185	146	0.062896050116979
28	6246	147	-0.39815186755732
28	6307	148	0.26205776487477
28	6368	149	-0.010056691942737
28	6429	150	0.82676088945009
28	6490	151	-0.50017457439099
28	6551	152	-0.48505048775114
28	6612	153	1.1030446935212
28	6673	154	-0.21404318383429
28	6734	155	0.091290987096727
28	6795	156	-0.96280311825685
28	6862	157	1.0462965754559
28	6930	158	-0.58626717543229
28	6998	159	-0.0047592699527748
28	7066	160	-0.34012844462413
28	7134	161	0.54242268593516
28	7202	162	-0.7591220148839
28	7270	163	0.82187691298313
28	7338	164	-0.32750063547864
28	7406	165	0.62896227646521
28	7474	166	-4.5
28	7542	167	-4.5
28	7610	168	-0.62211527682306
28	7678	169	2.5276067882543
28	7752	170	0.71094237675766
28	7826	171	-0.071235511312262
28	7895	172	0.0010322732385255
27	2219	80	17.981589371603
27	2263	81	18.871406968784
27	2307	82	18.552896200198
27	2351	83	18.39438076686
27	2395	84	18.901422851029
27	2439	85	18.721124288983
27	2524	86	19.166827904092
27	2568	87	18.022876176828
27	2739	88	18.689494002688
27	2783	89	18.07827160932
27	2953	90	18.638180452966
27	2997	91	18.411551848481
27	3083	92	18.986421322877
27	3132	93	17.990780234857
27	3181	94	19.147562217162
27	3230	95	18.405627170353
27	3279	96	18.919610967472
27	3328	97	18.602312366253
27	3377	98	18.73663019746
27	3426	99	18.756701434691
27	3475	100	17.997882050307
27	3524	101	18.964255711281
27	3573	102	18.221272696074
27	3622	103	18.45363716761
27	3671	104	18.305957467816
27	3720	105	19.1885341273
27	3775	106	19.163466088785
27	3830	107	19.018823484526
27	3885	108	18.199088405197
27	3940	109	18.017036874694
27	3996	110	18.475311476862
27	4052	111	19.123697953912
27	4108	112	19.067449538464
27	4164	113	19.199484671847
27	4221	114	17.987735097724
27	4277	115	18.413105188085
27	4333	116	18.914276143637
27	4390	117	18.166791262858
27	4447	118	18.101006886162
27	4509	119	18.105576588338
27	4571	120	19.053799300439
27	4633	121	17.991837894156
27	4695	122	19.095238560353
27	4757	123	18.485016449083
27	4820	124	18.854744918676
27	4882	125	18.384155602109
27	4944	126	18.867655011275
27	5006	127	18.771326532433
27	5068	128	18.718632594364
27	5130	129	18.933475579097
27	5192	130	18.837009036177
27	5254	131	18.55298170362
27	5321	132	18.528806360866
27	5388	133	19.143434278931
27	5455	134	18.229933608099
27	5522	135	18.918051063045
27	5590	136	18.082464955755
27	5658	137	18.095037160193
27	5720	138	19.246689205066
27	5781	139	18.157517417808
27	5842	140	18.389016311577
27	5898	141	19.218319954103
27	5953	142	18.86567215294
27	6008	143	18.533780002602
27	6063	144	18.495003425687
27	6124	145	18.382246915469
27	6185	146	18.445142965586
27	6246	147	18.046991098028
27	6307	148	18.309048862903
27	6368	149	18.29899217096
27	6429	150	19.12575306041
27	6490	151	18.62557848602
27	6551	152	18.140527998268
27	6612	153	19.24357269179
27	6673	154	19.029529507955
27	6734	155	19.120820495052
27	6795	156	18.158017376795
27	6862	157	19.204313952251
27	6930	158	18.618046776819
27	6998	159	18.613287506866
27	7066	160	18.273159062242
27	7134	161	18.815581748177
27	7202	162	18.056459733293
27	7270	163	18.878336646276
27	7338	164	18.550836010798
27	7406	165	19.179798287263
27	7474	166	14.679798287263
27	7542	167	10.179798287263
27	7610	168	9.5576830104398
27	7678	169	12.085289798694
27	7752	170	12.796232175452
27	7826	171	12.72499666414
27	7895	172	12.726028937378
26	2175	79	811.69393771003
26	2219	80	820.31077777896
26	2263	81	828.7233500538
26	2307	82	836.20609822687
26	2351	83	842.00755013007
26	2395	84	846.14705911919
26	2439	85	847.69142356626
26	2524	86	847.72343266693
26	2568	87	847.31749416104
26	2739	88	846.92418640042
26	2783	89	844.34073992087
26	2953	90	846.62059886165
26	2997	91	849.58884612604
26	3083	92	854.18403777507
26	3132	93	858.50092073795
26	3181	94	862.55316868213
26	3230	95	865.50788198313
26	3279	96	867.49298003407
26	3328	97	869.27443329808
26	3377	98	868.65311729074
26	3426	99	865.35120445013
26	3475	100	859.69862564064
26	3524	101	852.44027282814
26	3573	102	844.20361510371
26	3622	103	835.70001567033
26	3671	104	827.18278750425
26	3720	105	818.03769332727
26	3775	106	808.78080018716
26	3830	107	799.59377651246
26	3885	108	790.80272504851
26	3940	109	782.0996133944
26	3996	110	773.17513265176
26	4052	111	763.93744946945
26	4108	112	754.72665763678
26	4164	113	745.44542013034
26	4221	114	736.74995540832
26	4277	115	727.56689911471
26	4333	116	718.37367065298
26	4390	117	709.65311732848
26	4447	118	700.96414229188
26	4509	119	692.27297367411
26	4571	120	683.12663239514
26	4633	121	674.49006144039
26	4695	122	665.25331143899
26	4757	123	656.28109211514
26	4820	124	647.12941474598
26	4882	125	638.20615105291
26	4944	126	629.04820740951
26	5006	127	619.93701948537
26	5068	128	610.93204067581
26	5130	129	601.84381562137
26	5192	130	592.80189530631
26	5254	131	583.89631046273
26	5321	132	575.00232998385
26	5388	133	565.81332301495
26	5455	134	557.06280393218
26	5522	135	547.98198277316
26	5590	136	539.30224986462
26	5658	137	530.61648219384
26	5720	138	521.3779120054
26	5781	139	512.66215329361
26	5842	140	503.83527319591
26	5898	141	494.61032048284
26	5953	142	485.55464163439
26	6008	143	476.17405530202
26	6063	144	466.20015750383
26	6124	145	456.28706650212
26	6185	146	445.87527397146
26	6246	147	434.45285641778
26	6307	148	422.35154252657
26	6368	149	410.20876744874
26	6429	150	396.33441627115
26	6490	151	382.40595797848
26	6551	152	368.20852874039
26	6612	153	352.63487371322
26	6673	154	337.01427260136
26	6734	155	321.31873426659
26	6795	156	306.95819179065
26	6862	157	292.81005442199
26	6930	158	280.50182630057
26	6998	159	268.91415826227
26	7066	160	259.58281549434
26	7134	161	251.53193213807
26	7202	162	244.80542609013
26	7270	163	239.76932846157
26	7338	164	235.27699040021
26	7406	165	231.91700982103
26	7474	166	229.20243996962
26	7542	167	227.14931153065
26	7610	168	225.42510462107
26	7678	169	220.97097791244
26	7752	170	215.92657717057
26	7826	171	216.08076734972
26	7895	172	221.91073187521
25	2175	79	2182.8197270944
25	2219	80	2167.0231726509
25	2263	81	2150.1255334218
25	2307	82	2133.1492523624
25	2351	83	2115.6966451255
25	2395	84	2097.2585917435
25	2439	85	2078.6209838445
25	2524	86	2059.4486305125
25	2568	87	2041.4186918294
25	2739	88	2022.7237421798
25	2783	89	2003.3259204492
25	2953	90	1984.8507966351
25	2997	91	1966.6929272196
25	3083	92	1948.2855761978
25	3132	93	1930.8331834643
25	3181	94	1912.135692296
25	3230	95	1894.0033361511
25	3279	96	1875.201250245
25	3328	97	1856.7052965706
25	3377	98	1838.0219513582
25	3426	99	1819.6172843847
25	3475	100	1802.5755560806
25	3524	101	1785.0699117717
25	3573	102	1768.8367398966
25	3622	103	1752.4735345622
25	3671	104	1736.2839171738
25	3720	105	1719.4308574537
25	3775	106	1702.66652178
25	3830	107	1686.0287204795
25	3885	108	1670.1080292242
25	3940	109	1654.3465979355
25	3996	110	1638.1842647835
25	4052	111	1621.4547185554
25	4108	112	1604.7745331881
25	4164	113	1587.9825252976
25	4221	114	1572.250322332
25	4277	115	1556.3052867742
25	4333	116	1539.7915104576
25	4390	117	1523.8688835376
25	4447	118	1508.0039145756
25	4509	119	1492.1349404119
25	4571	120	1475.434878564
25	4633	121	1459.6655928245
25	4695	122	1442.9681123449
25	4757	123	1426.8211356884
25	4820	124	1410.3511949175
25	4882	125	1394.2923219285
25	4944	126	1377.8111039719
25	5006	127	1361.414030582
25	5068	128	1345.0185052119
25	5130	129	1328.4237075296
25	5192	130	1311.9134607665
25	5254	131	1295.6521580549
25	5321	132	1279.4120445285
25	5388	133	1262.6332224113
25	5455	134	1246.6550646386
25	5522	135	1230.0737862239
25	5590	136	1214.2248816589
25	5658	137	1198.364957818
25	5720	138	1181.4956349049
25	5781	139	1165.5809484173
25	5842	140	1149.4633579627
25	5898	141	1132.6189001082
25	5953	142	1116.0835307192
25	6008	143	1100.1263779751
25	6063	144	1084.5663089595
25	6124	145	1069.1011033533
25	6185	146	1053.8921543626
25	6246	147	1039.969068862
25	6307	148	1026.2461637543
25	6368	149	1012.5772156261
25	6429	150	999.43212583994
25	6490	151	987.11127980139
25	6551	152	975.8392407252
25	6612	153	964.57222698337
25	6673	154	953.72688498942
25	6734	155	942.82951428
25	6795	156	931.76765673668
25	6862	157	918.82075979397
25	6930	158	904.90152241917
25	6998	159	890.37581254021
25	7066	160	874.67948037627
25	7134	161	857.71533271163
25	7202	162	841.0068005661
25	7270	163	822.82607363338
25	7338	164	804.85714233294
25	7406	165	785.9873537901
25	7474	166	771.57227361879
25	7542	167	761.60882348855
25	7610	168	752.38705697049
25	7678	169	742.33506015681
25	7752	170	730.50079772209
25	7826	171	716.69495994586
25	7895	172	704.80712174975
vector 65 RSUExampleScenario.node[13].veinsmobility posx ETV
vector 66 RSUExampleScenario.node[13].veinsmobility posy ETV
vector 67 RSUExampleScenario.node[13].veinsmobility speed ETV
vector 68 RSUExampleScenario.node[13].veinsmobility acceleration ETV
vector 69 RSUExampleScenario.node[13].veinsmobility co2emission ETV
44	4571	120	4.6342994795447
44	4633	121	0.973
44	4695	122	1.2915774941172
44	4757	123	3.0209576961654
44	4820	124	0.973
44	4882	125	1.6895235195183
44	4944	126	4.6906112167461
44	5006	127	0.973
44	5068	128	1.3546970928401
44	5130	129	3.0923942167151
44	5192	130	2.5848441134792
44	5254	131	0.973
44	5321	132	0.973
44	5388	133	3.2008186215117
44	5455	134	0.973
44	5522	135	3.6948933102418
44	5590	136	0.973
44	5658	137	0.973
44	5720	138	4.6687007540362
44	5781	139	0.973
44	5842	140	1.7777287029505
44	5898	141	1.4435242536918
44	5953	142	3.0829227626078
44	6008	143	0.973
44	6063	144	3.1577712093794
44	6124	145	0.973
44	6185	146	2.5009246619389
44	6246	147	4.1683670999426
44	6307	148	0.973
44	6368	149	4.3572791067614
44	6429	150	0.973
44	6490	151	2.2971633275184
44	6551	152	2.316762383517
44	6612	153	2.466772274548
44	6673	154	0.973
44	6734	155	2.5671769474427
44	6795	156	2.3360565343649
44	6862	157	1.2722825093566
44	6930	158	0.973
44	6998	159	2.447369239724
44	7066	160	0.973
44	7134	161	4.8127542297476
44	7202	162	0.973
44	7270	163	0.973
44	7338	164	2.3748461125593
44	7406	165	2.6411253983223
44	7474	166	0.973
44	7542	167	1.8573962119308
44	7610	168	4.5799848002982
44	7678	169	1.5660942443939
44	7752	170	1.5443233764736
44	7826	171	0.973
44	7895	172	7.1162635628833
44	7964	173	3.5623632798517
44	8027	174	0.973
44	8090	175	4.009910930337
44	8153	176	2.1278904956296
44	8216	177	2.2234266195645
44	8278	178	0.973
44	8341	179	2.3815935460511
44	8404	180	2.7080319992991
44	8467	181	1.7749601830755
44	8530	182	2.5225960126818
44	8598	183	0.973
44	8666	184	4.4513462129717
43	4571	120	1.0193256726488
43	4633	121	-0.41532455701381
43	4695	122	-0.17687683247495
43	4757	123	0.44782987891231
43	4820	124	-0.85470067283604
43	4882	125	-0.013398288236932
43	4944	126	1.0366981144529
43	5006	127	-0.8705957764294
43	5068	128	-0.14606559812091
43	5130	129	0.49976560398936
43	5192	130	0.29182048812509
43	5254	131	-0.38594331205823
43	5321	132	-0.22253543327097
43	5388	133	0.52426421092823
43	5455	134	-0.25023529385216
43	5522	135	0.66885717720725
43	5590	136	-0.50156516365241
43	5658	137	-0.44112337573897
43	5720	138	1.0081546088913
43	5781	139	-1.0709369228221
43	5842	140	0.016303521906957
43	5898	141	-0.11154789419379
43	5953	142	0.49467023501638
43	6008	143	-0.36323463986628
43	6063	144	0.51135110182222
43	6124	145	-0.67149081020616
43	6185	146	0.28920832753647
43	6246	147	0.83780458220281
43	6307	148	-1.1805879893713
43	6368	149	0.93251318393741
43	6429	150	-0.65200168108568
43	6490	151	0.20388384256512
43	6551	152	0.2013462320203
43	6612	153	0.24424280726817
43	6673	154	-0.97178663189989
43	6734	155	0.31863105718512
43	6795	156	0.21809127118904
43	6862	157	-0.18218011616263
43	6930	158	-0.23616219938267
43	6998	159	0.26851371906232
43	7066	160	-0.30519060322549
43	7134	161	1.0754641072592
43	7202	162	-0.26748901281971
43	7270	163	-0.82568052250426
43	7338	164	0.24484681456815
43	7406	165	0.32754681534134
43	7474	166	-0.56664870970417
43	7542	167	0.051414523110724
43	7610	168	0.99663548995741
43	7678	169	-0.085213630902581
43	7752	170	-0.091043836158731
43	7826	171	-3.2203988052206
43	7895	172	2.1747559851734
43	7964	173	0.67892861471142
43	8027	174	-0.44539134667721
43	8090	175	0.80961054775398
43	8153	176	0.11734208734706
43	8216	177	0.14555169981904
43	8278	178	-1.0920890128007
43	8341	179	0.24497887650505
43	8404	180	0.34847852413077
43	8467	181	0.00042260310146958
43	8530	182	0.26475311943796
43	8598	183	-0.68314506600145
43	8666	184	0.93849248790648
42	4509	119	10.492718497835
42	4571	120	11.512044170484
42	4633	121	11.096719613471
42	4695	122	10.919842780996
42	4757	123	11.367672659908
42	4820	124	10.512971987072
42	4882	125	10.499573698835
42	4944	126	11.536271813288
42	5006	127	10.665676036858
42	5068	128	10.519610438737
42	5130	129	11.019376042727
42	5192	130	11.311196530852
42	5254	131	10.925253218794
42	5321	132	10.702717785523
42	5388	133	11.226981996451
42	5455	134	10.976746702599
42	5522	135	11.645603879806
42	5590	136	11.144038716154
42	5658	137	10.702915340415
42	5720	138	11.711069949306
42	5781	139	10.640133026484
42	5842	140	10.656436548391
42	5898	141	10.544888654197
42	5953	142	11.039558889213
42	6008	143	10.676324249347
42	6063	144	11.187675351169
42	6124	145	10.516184540963
42	6185	146	10.8053928685
42	6246	147	11.643197450702
42	6307	148	10.462609461331
42	6368	149	11.395122645269
42	6429	150	10.743120964183
42	6490	151	10.947004806748
42	6551	152	11.148351038768
42	6612	153	11.392593846037
42	6673	154	10.420807214137
42	6734	155	10.739438271322
42	6795	156	10.957529542511
42	6862	157	10.775349426348
42	6930	158	10.539187226965
42	6998	159	10.807700946028
42	7066	160	10.502510342802
42	7134	161	11.577974450061
42	7202	162	11.310485437242
42	7270	163	10.484804914738
42	7338	164	10.729651729306
42	7406	165	11.057198544647
42	7474	166	10.490549834943
42	7542	167	10.541964358054
42	7610	168	11.538599848011
42	7678	169	11.453386217108
42	7752	170	11.36234238095
42	7826	171	8.1419435757291
42	7895	172	10.316699560902
42	7964	173	10.995628175614
42	8027	174	10.550236828937
42	8090	175	11.359847376691
42	8153	176	11.477189464038
42	8216	177	11.622741163857
42	8278	178	10.530652151056
42	8341	179	10.775631027561
42	8404	180	11.124109551692
42	8467	181	11.124532154793
42	8530	182	11.389285274231
42	8598	183	10.70614020823
42	8666	184	11.644632696136
41	4447	118	836.7059994293
41	4509	119	826.63710328879
41	4571	120	815.59005412404
41	4633	121	804.94155370811
41	4695	122	794.4627857077
41	4757	123	783.55427659297
41	4820	124	773.46594504307
41	4882	125	763.39047059716
41	4944	126	752.32017239363
41	5006	127	742.08530482279
41	5068	128	731.99060296187
41	5130	129	721.41632205171
41	5192	130	710.56200787969
41	5254	131	700.07804798012
41	5321	132	689.8076348526
41	5388	133	679.03413361772
41	5455	134	668.50076016146
41	5522	135	657.32554603717
41	5590	136	646.63370418692
41	5658	137	636.37707884179
41	5720	138	625.15433690278
41	5781	139	614.95787597565
41	5842	140	604.74579135061
41	5898	141	594.64060329743
41	5953	142	584.0613717609
41	6008	143	573.83022871194
41	6063	144	563.10905687136
41	6124	145	553.03137602775
41	6185	146	542.63371162786
41	6246	147	531.41372770555
41	6307	148	521.33141909243
41	6368	149	510.35049281218
41	6429	150	499.99786888701
41	6490	151	489.44877200455
41	6551	152	478.70564753683
41	6612	153	467.72715813758
41	6673	154	457.68513231992
41	6734	155	447.33031677056
41	6795	156	436.73973508179
41	6862	157	426.32523262647
41	6930	158	416.13898372543
41	6998	159	405.69321314433
41	7066	160	395.54241288492
41	7134	161	384.35216386682
41	7202	162	373.42044613811
41	7270	163	363.28675838399
41	7338	164	352.91642329245
41	7406	165	342.22951033623
41	7474	166	332.0902700489
41	7542	167	321.90133701788
41	7610	168	310.74914401759
41	7678	169	299.92073689978
41	7752	170	289.91834182157
41	7826	171	283.34309904621
41	7895	172	275.30474812838
41	7964	173	267.75243180907
41	8027	174	259.71188585636
41	8090	175	248.25884237651
41	8153	176	235.93615025299
41	8216	177	225.23030232062
41	8278	178	218.24544127298
41	8341	179	215.47011946933
41	8404	180	216.22493176728
41	8467	181	221.36730502442
41	8530	182	230.40090483874
41	8598	183	241.19726007397
41	8666	184	253.52189786553
40	4447	118	565.71467961936
40	4509	119	568.66638341945
40	4571	120	571.90483344857
40	4633	121	575.02644863899
40	4695	122	578.09830665555
40	4757	123	581.29614357412
40	4820	124	584.25354487778
40	4882	125	587.20717711261
40	4944	126	590.45244261337
40	5006	127	593.45280105195
40	5068	128	596.41206981666
40	5130	129	599.51192750813
40	5192	130	602.69387714212
40	5254	131	605.76725716747
40	5321	132	608.77803581033
40	5388	133	611.93629507645
40	5455	134	615.02416071979
40	5522	135	618.30018239458
40	5590	136	621.44209801543
40	5658	137	624.50020839441
40	5720	138	627.84637562285
40	5781	139	630.88654740849
40	5842	140	633.93137754822
40	5898	141	636.94433545856
40	5953	142	640.09863394123
40	6008	143	643.14914653129
40	6063	144	646.34576586535
40	6124	145	649.35052223958
40	6185	146	652.28900277194
40	6246	147	655.39925157984
40	6307	148	658.1941297688
40	6368	149	661.23811032254
40	6429	150	664.10792158474
40	6490	151	667.0321963636
40	6551	152	670.01025678688
40	6612	153	673.05356182217
40	6673	154	675.83727337155
40	6734	155	678.68494443134
40	6795	156	681.49651746684
40	6862	157	684.26134523004
40	6930	158	686.96557655412
40	6998	159	689.73870533627
40	7066	160	692.43352580381
40	7134	161	695.40429769571
40	7202	162	698.30643505709
40	7270	163	700.9967125203
40	7338	164	703.74981479261
40	7406	165	706.58696172028
40	7474	166	709.27871326236
40	7542	167	711.98365716557
40	7610	168	714.94432599829
40	7678	169	718.6172304712
40	7752	170	723.96998311536
40	7826	171	728.74591486944
40	7895	172	734.95559832511
40	7964	173	742.55028154801
40	8027	174	749.54592459721
40	8090	175	753.50102323613
40	8153	176	752.45011514591
40	8216	177	746.94720910406
40	8278	178	738.74913773227
40	8341	179	727.91685021333
40	8404	180	715.84580652683
40	8467	181	705.4592339707
40	8530	182	698.06464039269
40	8598	183	694.55900214384
40	8666	184	695.74390912235
39	3830	107	0.973
39	3885	108	0.973
39	3940	109	2.7917514640014
39	3996	110	2.2424805338437
39	4052	111	0.973
39	4108	112	1.8893398717986
39	4164	113	0.973
39	4221	114	5.4027136590581
39	4277	115	4.0394515291324
39	4333	116	0.973
39	4390	117	0.973
39	4447	118	0.973
39	4509	119	0.973
39	4571	120	1.6149167699288
39	4633	121	2.7565662934097
39	4695	122	4.7954244118185
39	4757	123	5.5101431279428
39	4820	124	3.070317283951
39	4882	125	0.973
39	4944	126	2.3893767843918
39	5006	127	0.973
39	5068	128	1.975348454137
39	5130	129	2.5263044792891
39	5192	130	0.973
39	5254	131	2.7531667821486
39	5321	132	2.2010831276056
39	5388	133	0.973
39	5455	134	3.6009612662345
39	5522	135	0.973
39	5590	136	0.973
39	5658	137	0.973
39	5720	138	0.973
39	5781	139	1.6521337577419
39	5842	140	0.973
39	5898	141	2.255959073889
39	5953	142	4.1061500546347
39	6008	143	5.9254519649804
39	6063	144	5.9956560506118
39	6124	145	0.973
39	6185	146	3.8027360079503
39	6246	147	0.973
39	6307	148	1.7695173768707
39	6368	149	0.973
39	6429	150	0.973
39	6490	151	0.973
39	6551	152	1.6518231362123
39	6612	153	2.3904488565202
39	6673	154	2.5313201214171
39	6734	155	0.973
39	6795	156	0.973
39	6862	157	0.973
39	6930	158	2.3195179608573
39	6998	159	1.6335462203674
39	7066	160	0.973
39	7134	161	0.973
39	7202	162	2.800048726378
39	7270	163	4.895370341663
39	7338	164	0.973
39	7406	165	2.4009117410471
39	7474	166	1.8198067443426
39	7542	167	0.973
39	7610	168	2.2350310601339
39	7678	169	0.973
39	7752	170	0.973
39	7826	171	2.6065429608796
39	7895	172	0.973
39	7964	173	3.5853404646926
39	8027	174	2.9425314216063
39	8090	175	1.6077926564649
39	8153	176	0.973
39	8216	177	2.7721691160653
39	8278	178	2.5179210505026
39	8341	179	0.973
39	8404	180	2.2878147211008
39	8467	181	1.9744989496796
39	8530	182	0.973
39	8598	183	2.7706478420789
39	8666	184	0.973
39	8734	185	3.180048591128
39	8796	186	1.8137064394937
39	8858	187	0.973
39	8920	188	3.6363130874132
38	3830	107	-0.43281500854064
38	3885	108	-0.43001593861263
38	3940	109	0.45305881777313
38	3996	110	0.21554645565339
38	4052	111	-0.60888284107205
38	4108	112	0.093745092116897
38	4164	113	-4.5
38	4221	114	2.1691194649087
38	4277	115	1.1796774215633
38	4333	116	-0.19634001890663
38	4390	117	-1.5232603754838
38	4447	118	-0.83839438797017
38	4509	119	-0.48991934263613
38	4571	120	0.15252417805605
38	4633	121	0.82481997709256
38	4695	122	1.6391417283332
38	4757	123	1.6218978063508
38	4820	124	0.54345306681935
38	4882	125	-0.24994320538826
38	4944	126	0.26971197496168
38	5006	127	-0.59098793028388
38	5068	128	0.12418260897975
38	5130	129	0.33287885421887
38	5192	130	-0.62162654420827
[...]
49	5522	135	0.973
49	5590	136	1.4380046195955
49	5658	137	7.4714613885907
49	5720	138	0.973
49	5781	139	5.7494950399697
49	5842	140	1.8232909962048
49	5898	141	5.7328969042479
49	5953	142	3.1868247086278
49	6008	143	0.973
49	6063	144	3.8833204068804
49	6124	145	2.1687210555808
49	6185	146	3.6147428901932
49	6246	147	4.5394664994179
49	6307	148	5.7310111647402
49	6368	149	1.3348399576917
49	6429	150	3.1989439289031
49	6490	151	0.973
49	6551	152	2.4868022968678
49	6612	153	7.7664522427515
49	6673	154	0.973
49	6734	155	6.9509473212119
49	6795	156	3.6355870252402
49	6862	157	0.973
49	6930	158	3.8798296000358
49	6998	159	5.6407723270482
49	7066	160	0.973
49	7134	161	1.9193593296948
49	7202	162	2.1654325137736
49	7270	163	7.0710843931682
49	7338	164	3.4907745226038
49	7406	165	2.7571232003852
49	7474	166	0.94607913393485
49	7542	167	0.973
49	7610	168	8.8632488023212
49	7678	169	2.7261543565132
49	7752	170	2.2384450763317
49	7826	171	2.0432047060709
49	7895	172	0.973
49	7964	173	3.4928268932439
49	8027	174	2.2628531767244
49	8090	175	6.8738238217308
49	8153	176	1.6028499297224
49	8216	177	5.5361170205266
49	8278	178	0.973
49	8341	179	6.5679499434363
49	8404	180	4.5117145040081
49	8467	181	0.973
49	8530	182	7.2839789934595
49	8598	183	0.5220945375253
49	8666	184	0.973
49	8734	185	6.7270960324848
49	8796	186	0.973
49	8858	187	6.201057523052
49	8920	188	2.9522747554001
49	8982	189	2.2801532045005
49	9038	190	3.2459741634866
49	9094	191	2.2474680058937
49	9150	192	4.0194060626286
49	9206	193	3.4690552633572
49	9262	194	3.1441264498083
49	9318	195	0.973
49	9380	196	4.1152671917267
50	6063	144	533.98027303754
50	6124	145	534.0840754538
50	6185	146	534.3439996284
50	6246	147	534.55285803535
50	6307	148	532.70959337125
50	6368	149	531.27386261711
50	6429	150	530.91557680668
50	6490	151	530.48726547147
50	6551	152	529.12401034505
50	6612	153	525.2573807126
50	6673	154	521.52673833705
50	6734	155	516.79717218259
50	6795	156	510.48277937084
50	6862	157	502.8620368787
50	6930	158	493.73070001397
50	6998	159	484.54209921888
50	7066	160	475.29197311331
50	7134	161	467.81362906851
50	7202	162	462.83316083166
50	7270	163	457.26899096032
50	7338	164	452.5679265064
50	7406	165	446.84437909758
50	7474	166	440.01189504664
50	7542	167	432.02037342724
50	7610	168	422.66639252284
50	7678	169	411.63427514715
50	7752	170	399.66945371002
50	7826	171	387.99036702291
50	7895	172	375.99648005849
50	7964	173	363.91728978078
50	8027	174	351.49714356144
50	8090	175	339.03534401523
50	8153	176	329.88685595634
50	8216	177	324.11149028988
50	8278	178	317.70368121237
50	8341	179	313.31885717949
50	8404	180	308.2267915285
50	8467	181	301.79687664201
50	8530	182	294.31849115939
50	8598	183	286.18265935268
50	8666	184	279.63184603374
50	8734	185	274.19725576707
50	8796	186	267.58720249238
50	8858	187	259.4794167602
50	8920	188	249.92823813685
50	8982	189	239.31356507113
50	9038	190	226.73128484684
50	9094	191	215.02974279214
50	9150	192	202.95143170785
50	9206	193	190.98000233546
50	9262	194	178.55805804456
50	9318	195	166.45917568893
50	9380	196	154.51967384219
51	6063	144	138.88392491468
51	6124	145	137.23549741295
51	6185	146	133.10778850987
51	6246	147	129.79102619954
51	6307	148	127.81810039032
51	6368	149	130.98448082156
51	6429	150	136.6130353273
51	6490	151	143.34166823853
51	6551	152	147.91092444832
51	6612	153	145.89576695066
51	6673	154	141.25353782721
51	6734	155	135.25130475921
51	6795	156	127.23732465018
51	6862	157	117.56241020997
51	6930	158	105.96972052363
51	6998	159	94.304331408412
51	7066	160	82.560832828731
51	7134	161	73.066700352472
51	7202	162	66.743746373457
51	7270	163	64.612689877397
51	7338	164	67.76111551548
51	7406	165	71.935657339529
51	7474	166	76.919016154523
51	7542	167	82.74773370591
51	7610	168	89.570178200145
51	7678	169	97.616592792902
51	7752	170	106.34328691089
51	7826	171	114.8615767685
51	7895	172	123.6094701971
51	7964	173	132.4195806781
51	8027	174	141.47837169529
51	8090	175	150.56754309421
51	8153	176	157.24010877782
51	8216	177	161.45244490465
51	8278	178	161.76752355254
51	8341	179	156.28105172176
51	8404	180	149.3276133727
51	8467	181	140.54728338142
51	8530	182	130.33522093604
51	8598	183	119.22538678155
51	8666	184	111.71126330136
51	8734	185	111.34942741745
51	8796	186	114.27484174902
51	8858	187	119.80235698172
51	8920	188	126.60295619525
51	8982	189	134.16078127102
51	9038	190	143.11957561171
51	9094	191	151.45126961855
51	9150	192	160.05122948736
51	9206	193	168.57508778645
51	9262	194	177.41972025608
51	9318	195	186.03432721477
51	9380	196	194.53545258064
52	6124	145	1.652940650261
52	6185	146	4.1390099541517
52	6246	147	3.3258431106272
52	6307	148	3.1760501979782
52	6368	149	3.7656320647967
52	6429	150	5.6439646481235
52	6490	151	6.7470549041398
52	6551	152	4.902676917883
52	6612	153	4.9171848446274
52	6673	154	5.9640365739497
52	6734	155	7.6408106737448
52	6795	156	10.19315936511
52	6862	157	12.316202869141
52	6930	158	14.75753804938
52	6998	159	14.850084698762
52	7066	160	14.949518344019
52	7134	161	12.086066741641
52	7202	162	8.0491444569359
52	7270	163	6.5465095674069
52	7338	164	5.6711992050436
52	7406	165	7.0840841335393
52	7474	166	8.4566246071978
52	7542	167	9.8911754307485
52	7610	168	11.577503072346
52	7678	169	13.654547097851
52	7752	170	14.808962982082
52	7826	171	14.455306610538
52	7895	172	14.844937636614
52	7964	173	14.9505182853
52	8027	174	15.37252240335
52	8090	175	15.424077086294
52	8153	176	11.323162800043
52	8216	177	7.1482200392219
52	8278	178	6.990088939357
52	8341	179	7.0381759301922
52	8404	180	8.6191938678664
52	8467	181	10.883732999365
52	8530	182	12.658449185702
52	8598	183	13.771289772111
52	8666	184	10.030507712834
52	8734	185	5.5975929948464
52	8796	186	7.2943222405352
52	8858	187	9.8225880835634
52	8920	188	11.724969866007
52	8982	189	13.030509295357
52	9038	190	15.445932098358
52	9094	191	14.364743178597
52	9150	192	14.82726259034
52	9206	193	14.696055238791
52	9262	194	15.249104663593
52	9318	195	14.852515760254
52	9380	196	14.656861198883
53	6185	146	2.4860693038907
53	6246	147	-0.8131668435245
53	6307	148	-0.14979291264899
53	6368	149	0.58958186681848
53	6429	150	1.8783325833268
53	6490	151	1.1030902560163
53	6551	152	-1.8443779862568
53	6612	153	0.014507926744409
53	6673	154	1.0468517293222
53	6734	155	1.6767740997951
53	6795	156	2.5523486913648
53	6862	157	2.1230435040314
53	6930	158	2.4413351802388
53	6998	159	0.092546649382676
53	7066	160	0.099433645256795
53	7134	161	-2.8634516023787
53	7202	162	-4.0369222847046
53	7270	163	-1.502634889529
53	7338	164	-0.87531036236323
53	7406	165	1.4128849284956
53	7474	166	1.3725404736586
53	7542	167	1.4345508235507
53	7610	168	1.686327641597
53	7678	169	2.0770440255059
53	7752	170	1.1544158842301
53	7826	171	-0.35365637154318
53	7895	172	0.38963102607522
53	7964	173	0.10558064868674
53	8027	174	0.42200411804952
53	8090	175	0.051554682943969
53	8153	176	-4.1009142862505
53	8216	177	-4.1749427608214
53	8278	178	-0.15813109986484
53	8341	179	0.048086990835145
53	8404	180	1.5810179376742
53	8467	181	2.2645391314989
53	8530	182	1.7747161863372
53	8598	183	1.1128405864085
53	8666	184	-3.7407820592767
53	8734	185	-4.4329147179878
53	8796	186	1.6967292456888
53	8858	187	2.5282658430282
53	8920	188	1.9023817824433
53	8982	189	1.3055394293508
53	9038	190	2.4154228030005
53	9094	191	-1.0811889197606
53	9150	192	0.46251941174269
53	9206	193	-0.13120735154953
53	9262	194	0.55304942480288
53	9318	195	-0.39658890333958
53	9380	196	-0.19565456137061
54	6185	146	3.7960737624968
54	6246	147	0.973
54	6307	148	0.973
54	6368	149	1.8316425696147
54	6429	150	3.9537726587716
54	6490	151	3.2575207285178
54	6551	152	0.973
54	6612	153	1.3753805260497
54	6673	154	2.9219766468427
54	6734	155	4.6074727444937
54	6795	156	7.9695298773621
54	6862	157	8.1783467983952
54	6930	158	10.801577859312
54	6998	159	2.4601043077311
54	7066	160	2.4980491556401
54	7134	161	0.973
54	7202	162	0.973
54	7270	163	0.973
54	7338	164	0.973
54	7406	165	3.8967457468228
54	7474	166	4.3711170144836
54	7542	167	5.0961898771527
54	7610	168	6.5170099459848
54	7678	169	8.8389016379883
54	7752	170	6.2444661119428
54	7826	171	0.973
54	7895	172	3.5222847279254
54	7964	173	2.5203314059656
54	8027	174	3.7505913038996
54	8090	175	2.384673696149
54	8153	176	0.973
54	8216	177	0.973
54	8278	178	0.973
54	8341	179	1.5632939856998
54	8404	180	4.8690734763158
54	8467	181	7.6939698553324
54	8530	182	7.3221219647952
54	8598	183	5.7089785459191
54	8666	184	0.973
54	8734	185	0.973
54	8796	186	4.4804653316135
54	8858	187	7.6564119677627
54	8920	188	7.2001110187946
54	8982	189	6.0428347844625
54	9038	190	11.186869797452
54	9094	191	0.973
54	9150	192	3.7791513822755
54	9206	193	1.6474416202199
54	9262	194	4.205663585198
54	9318	195	0.973
54	9380	196	1.4168034637855
55	6795	156	156.97410535295
55	6862	157	167.53027831806
55	6930	158	177.98171807599
55	6998	159	188.59591604604
55	7066	160	199.01835195697
55	7134	161	209.06544939468
55	7202	162	219.33873436162
55	7270	163	230.00899034706
55	7338	164	240.30240990149
55	7406	165	250.83420073437
55	7474	166	258.93883628791
55	7542	167	263.95004950396
55	7610	168	268.6887658944
55	7678	169	273.61476022391
55	7752	170	277.33371408609
55	7826	171	282.30071734496
55	7895	172	288.54045990584
55	7964	173	295.72687869686
55	8027	174	303.07403643607
55	8090	175	310.31431154948
55	8153	176	320.61368777053
55	8216	177	330.7858792623
55	8278	178	340.5597387338
55	8341	179	350.15369354035
55	8404	180	360.41861092958
55	8467	181	370.60805768412
55	8530	182	380.30558917486
55	8598	183	390.40761587139
55	8666	184	400.54330858484
55	8734	185	410.36441709769
55	8796	186	420.39433165998
55	8858	187	430.52535098492
55	8920	188	440.75592379314
55	8982	189	450.32831284605
55	9038	190	456.83130770581
55	9094	191	459.87837307071
55	9150	192	461.94755041977
55	9206	193	464.96960762549
55	9262	194	468.97972526161
55	9318	195	474.40243006292
55	9380	196	480.82233270753
56	6795	156	196.72194924291
56	6862	157	189.20512124306
56	6930	158	181.76287154984
56	6998	159	174.20472516847
56	7066	160	166.78312850263
56	7134	161	159.62880244273
56	7202	162	152.31341301654
56	7270	163	144.71534890542
56	7338	164	137.38562206439
56	7406	165	129.88615606635
56	7474	166	124.11501612209
56	7542	167	120.54663694337
56	7610	168	117.41684995694
56	7678	169	117.49377642652
56	7752	170	121.93180712391
56	7826	171	128.65561518964
56	7895	172	137.10232423578
56	7964	173	146.83054427357
56	8027	174	156.77635584092
56	8090	175	166.57748091945
56	8153	176	166.7986641218
56	8216	177	160.55262255493
56	8278	178	153.42339339494
56	8341	179	146.42538993828
56	8404	180	138.93797428742
56	8467	181	131.505608277
56	8530	182	124.43205412111
56	8598	183	117.06345387573
56	8666	184	109.67029703118
56	8734	185	102.50660356931
56	8796	186	95.190603213645
56	8858	187	87.800855222855
56	8920	188	80.338491128049
56	8982	189	73.356218120565
56	9038	190	68.612816528118
56	9094	191	68.190888455583
56	9150	192	70.798193824326
56	9206	193	74.634106204173
56	9262	194	79.724168647695
56	9318	195	86.607235070218
56	9380	196	94.756049720461
57	6862	157	12.959825894583
57	6930	158	12.831244813648
57	6998	159	13.03106326102
57	7066	160	12.795636756762
57	7134	161	12.334833274244
57	7202	162	12.612523968399
57	7270	163	13.099885752073
57	7338	164	12.637243225004
57	7406	165	12.929891922346
57	7474	166	9.9500705473611
57	7542	167	6.1522723258959
57	7610	168	5.6882503244963
57	7678	169	5.2050122442592
57	7752	170	5.8042427827308
57	7826	171	8.3600611163706
57	7895	172	10.502233729412
57	7964	173	12.095603157387
57	8027	174	12.366146050298
57	8090	175	12.18624979546
57	8153	176	12.43127818403
57	8216	177	11.992294627612
57	8278	178	12.098108320704
57	8341	179	11.875421865026
57	8404	180	12.705941070683
57	8467	181	12.612523325507
57	8530	182	12.003629350357
57	8598	183	12.504314553502
57	8666	184	12.545986435583
57	8734	185	12.156593305266
57	8796	186	12.415053968781
57	8858	187	12.540201703293
57	8920	188	12.663429260228
57	8982	189	11.848727719867
57	9038	190	8.0494237155511
57	9094	191	3.5494237155511
57	9150	192	3.329218364027
57	9206	193	4.8831310447628
57	9262	194	6.4796688444537
57	9318	195	8.7621697272264
57	9380	196	10.373472033846
58	6930	158	-0.12858108093496
58	6998	159	0.19981844737194
58	7066	160	-0.23542650425806
58	7134	161	-0.46080348251853
58	7202	162	0.27769069415517
58	7270	163	0.48736178367399
58	7338	164	-0.46264252706897
58	7406	165	0.29264869734179
58	7474	166	-2.9798213749844
58	7542	167	-3.7977982214652
58	7610	168	-0.46402200139965
58	7678	169	-0.48323808023706
58	7752	170	0.5992305384716
58	7826	171	2.5558183336398
58	7895	172	2.1421726130415
58	7964	173	1.5933694279753
58	8027	174	0.2705428929105
58	8090	175	-0.17989625483751
58	8153	176	0.24502838857006
58	8216	177	-0.43898355641868
58	8278	178	0.10581369309221
58	8341	179	-0.2226864556782
58	8404	180	0.83051920565777
58	8467	181	-0.093417745176703
58	8530	182	-0.60889397514984
58	8598	183	0.50068520314526
58	8666	184	0.041671882080847
58	8734	185	-0.38939313031733
58	8796	186	0.25846066351514
58	8858	187	0.12514773451258
58	8920	188	0.12322755693458
58	8982	189	-0.81470154036068
58	9038	190	-3.7993040043162
58	9094	191	-4.5
58	9150	192	-0.22020535152405
58	9206	193	1.5539126807358
58	9262	194	1.5965377996909
58	9318	195	2.2825008827727
58	9380	196	1.6113023066195
59	6930	158	1.526518838722
59	6998	159	2.5705603376595
59	7066	160	1.1947999003396
59	7134	161	0.973
59	7202	162	2.7478459399477
59	7270	163	3.4882456522198
59	7338	164	0.973
59	7406	165	2.8453522363446
59	7474	166	0.973
59	7542	167	0.973
59	7610	168	0.973
59	7678	169	0.973
59	7752	170	2.2462776500311
59	7826	171	6.7166635827145
59	7895	172	7.1455571111468
59	7964	173	6.5017045701651
59	8027	174	2.6875190829862
59	8090	175	1.3367093228165
59	8153	176	2.6212427274543
59	8216	177	0.973
59	8278	178	2.1657058929688
59	8341	179	1.2002574251457
59	8404	180	4.4555868794823
59	8467	181	1.6198179003526
59	8530	182	0.973
59	8598	183	3.4026573205918
59	8666	184	2.0236429358304
59	8734	185	0.973
59	8796	186	2.6589978037579
59	8858	187	2.2753333310922
59	8920	188	2.2845576800805
59	8982	189	0.973
59	9038	190	0.973
59	9094	191	0.973
59	9150	192	0.973
59	9206	193	3.1850168433198
59	9262	194	3.9408651946013
59	9318	195	6.4147503731677
59	9380	196	5.7418034747682
60	7678	169	520.6725729359
60	7752	170	529.10216561058
60	7826	171	532.00218650567
60	7895	172	531.95688497579
60	7964	173	531.91356722603
60	8027	174	531.86749901708
60	8090	175	531.8252823206
60	8153	176	531.78354214924
60	8216	177	531.57149819052
60	8278	178	531.11509971891
60	8341	179	530.52222394967
60	8404	180	530.63547834914
60	8467	181	533.78245690404
60	8530	182	541.00650054645
60	8598	183	550.49927822729
60	8666	184	561.49629899743
60	8734	185	573.80576223303
60	8796	186	585.81600510169
60	8858	187	597.90685306277
60	8920	188	610.31167015415
60	8982	189	622.40912700211
60	9038	190	634.71232976504
60	9094	191	646.71960543732
60	9150	192	659.03006299952
60	9206	193	671.28681125342
60	9262	194	683.11799947998
60	9318	195	695.06855278954
60	9380	196	702.52034804557
61	7678	169	29.688803723
61	7752	170	37.962931648909
61	7826	171	48.729545658756
61	7895	172	61.433140059144
61	7964	173	73.58043673177
61	8027	174	86.499025634732
61	8090	175	98.337561557586
61	8153	176	110.04246884258
61	8216	177	121.84275716111
61	8278	178	133.47859473834
61	8341	179	142.79248182287
61	8404	180	149.17473315351
61	8467	181	155.6438553021
61	8530	182	157.09284794619
61	8598	183	156.48095592991
61	8666	184	156.21253185101
61	8734	185	155.91207262666
61	8796	186	155.61891701235
61	8858	187	155.32379392448
61	8920	188	155.02100722695
61	8982	189	154.72572282408
61	9038	190	154.42541641035
61	9094	191	154.13233322175
61	9150	192	153.83184972708
61	9206	193	153.53267721216
61	9262	194	153.24389210678
61	9318	195	152.95219344297
61	9380	196	152.77030406406
62	7752	170	11.812487106422
62	7826	171	11.967800753704
62	7895	172	12.703449590691
62	7964	173	12.147158204229
62	8027	174	12.918441642519
62	8090	175	11.838400974055
62	8153	176	11.704773859447
62	8216	177	11.800245030039
62	8278	178	11.647661245242
62	8341	179	9.3393871176144
62	8404	180	6.3819267592165
62	8467	181	7.4573187266847
62	8530	182	7.6529327907039
62	8598	183	9.5143054951353
62	8666	184	11.00005665495
62	8734	185	12.312861438911
62	8796	186	12.013558467921
62	8858	187	12.094185812516
62	8920	188	12.408241618495
62	8982	189	12.100796523877
62	9038	190	12.306599237957
62	9094	191	12.010590452399
62	9150	192	12.313856040012
62	9206	193	12.260131904483
62	9262	194	11.834454395227
62	9318	195	11.953852430652
62	9380	196	7.453852430652
63	7826	171	0.15531364728231
63	7895	172	0.73564883698709
63	7964	173	-0.55629138646182
63	8027	174	0.77128343828954
63	8090	175	-1.0800406684633
63	8153	176	-0.13362711460795
63	8216	177	0.095471170591191
63	8278	178	-0.1525837847963
63	8341	179	-2.3082741276279
63	8404	180	-2.9574603583979
63	8467	181	1.0753919674682
63	8530	182	0.19561406401917
63	8598	183	1.8613727044314
63	8666	184	1.4857511598151
63	8734	185	1.3128047839607
63	8796	186	-0.29930297099054
63	8858	187	0.080627344595268
63	8920	188	0.3140558059793
63	8982	189	-0.30744509461802
63	9038	190	0.20580271407962
63	9094	191	-0.29600878555793
63	9150	192	0.30326558761299
63	9206	193	-0.053724135528318
63	9262	194	-0.42567750925664
63	9318	195	0.11939803542518
63	9380	196	-4.5
64	7826	171	2.2936376920021
64	7895	172	4.1644079500433
64	7964	173	0.973
64	8027	174	4.333617065215
64	8090	175	0.973
64	8153	176	1.4458325739726
64	8216	177	2.1025412844663
64	8278	178	1.3895458139874
64	8341	179	0.973
64	8404	180	0.973
64	8467	181	3.4407611174486
64	8530	182	1.8813649508359
64	8598	183	5.9165619020659
64	8666	184	5.7023475330483
64	8734	185	5.7720334633079
64	8796	186	0.973
64	8858	187	2.0918469669579
64	8920	188	2.8242049527339
64	8982	189	0.973
64	9038	190	2.4862402952178
64	9094	191	0.973
64	9150	192	2.7764897132823
64	9206	193	1.7129291329303
64	9262	194	0.973
64	9318	195	2.1884212023708
64	9380	196	0.973
65	8530	182	712.04755287009
65	8598	183	715.2097533403
65	8666	184	715.16031041147
65	8734	185	711.87765741916
65	8796	186	714.99357000132
65	8858	187	714.91680378874
65	8920	188	714.57915253396
65	8982	189	712.83627837786
65	9038	190	711.05311484249
65	9094	191	709.20392766489
65	9150	192	702.55585796129
65	9206	193	696.81093968648
65	9262	194	694.40654173719
65	9318	195	696.48508514748
65	9380	196	702.21113868244
66	8530	182	142.29
66	8598	183	144.64389245657
66	8666	184	148.37813471301
66	8734	185	154.59057756974
66	8796	186	163.31828244704
66	8858	187	174.06151188091
66	8920	188	186.85406786251
66	8982	189	199.68617825561
66	9038	190	208.54132873855
66	9094	191	217.32937568483
66	9150	192	224.02024917079
66	9206	193	232.36475796118
66	9262	194	243.7716445789
66	9318	195	255.03008611709
66	9380	196	264.29801072534
67	8598	183	2.2949710523244
67	8666	184	3.739446775266
67	8734	185	6.2511763125891
67	8796	186	8.6702233621851
67	8858	187	10.674818483158
67	8920	188	12.727513875044
67	8982	189	12.870327638614
67	9038	190	8.9754918403002
67	9094	191	8.7215196019262
67	9150	192	9.7486613218593
67	9206	193	9.7946177801969
67	9262	194	10.920825368158
67	9318	195	10.770683252873
67	9380	196	10.365781255082
68	8666	184	1.4444757229416
68	8734	185	2.5117295373231
68	8796	186	2.419047049596
68	8858	187	2.004595120973
68	8920	188	2.0526953918859
68	8982	189	0.14281376357001
68	9038	190	-3.8948357983138
68	9094	191	-0.25397223837395
68	9150	192	1.0271417199331
68	9206	193	0.045956458337605
68	9262	194	1.1262075879611
68	9318	195	-0.15014211528469
68	9380	196	-0.4049019977916
69	8666	184	2.5969926024563
69	8734	185	5.2181275887146
69	8796	186	6.6431173278544
69	8858	187	6.894408289758
69	8920	188	8.2107310044956
69	8982	189	2.3707804797092
69	9038	190	0.973
69	9094	191	0.973
69	9150	192	4.0790572685893
69	9206	193	1.7777758014406
69	9262	194	4.7212280154773
69	9318	195	1.3552743505423
69	9380	196	0.973
70	9318	195	720.93464078286
70	9380	196	722.61808579931
71	9318	195	273.84623285601
71	9380	196	270.74800873468
72	9380	196	2.0300680076936

