version 2
run Default-0-20241103-16:42:42-2824
attr configname Default
attr datetime 20241103-16:42:42
attr experiment Default
attr inifile omnetpp.ini
attr iterationvars ""
attr iterationvarsf ""
attr measurement ""
attr network RSUExampleScenario
attr processid 2824
attr repetition 0
attr replication #0
attr resultdir results
attr runnumber 0
attr seedset 0
param *.playgroundSizeX 1100m
param *.playgroundSizeY 100m
param *.playgroundSizeZ 50m
param *.annotations.draw true
param *.manager.updateInterval 1s
param *.manager.host "\"localhost\""
param *.manager.port 9999
param *.manager.autoShutdown true
param *.manager.launchConfig "xmldoc(\"first.launchd.xml\")"
param *.rsu[0].mobility.x 500
param *.rsu[0].mobility.y 50
param *.rsu[0].mobility.z 3
param *.rsu[*].applType "\"TraCIDemoRSU11p\""
param *.rsu[*].appl.headerLength "80 bit"
param *.rsu[*].appl.sendBeacons true
param *.rsu[*].appl.dataOnSch false
param *.rsu[*].appl.beaconInterval 1s
param *.rsu[*].appl.beaconUserPriority 7
param *.rsu[*].appl.dataUserPriority 5
param *.rsu[*].nic.phy80211p.antennaOffsetZ "0 m"
param *.connectionManager.sendDirect true
param *.connectionManager.maxInterfDist 2600m
param *.connectionManager.drawMaxIntfDist false
param *.**.nic.mac1609_4.useServiceChannel false
param *.**.nic.mac1609_4.txPower 20mW
param *.**.nic.mac1609_4.bitrate 6Mbps
param *.**.nic.phy80211p.minPowerLevel -110dBm
param *.**.nic.phy80211p.useNoiseFloor true
param *.**.nic.phy80211p.noiseFloor -98dBm
param *.**.nic.phy80211p.decider "xmldoc(\"config.xml\")"
param *.**.nic.phy80211p.analogueModels "xmldoc(\"config.xml\")"
param *.**.nic.phy80211p.usePropagationDelay true
param *.**.nic.phy80211p.antenna "xmldoc(\"antenna.xml\", \"/root/Antenna[@id='monopole']\")"
param *.node[*].nic.phy80211p.antennaOffsetY "0 m"
param *.node[*].nic.phy80211p.antennaOffsetZ "1.895 m"
param *.node[*].applType "\"TraCIDemo11p\""
param *.node[*].appl.headerLength "80 bit"
param *.node[*].appl.sendBeacons false
param *.node[*].appl.dataOnSch false
param *.node[*].appl.beaconInterval 1s
param *.node[*].veinsmobility.x 0
param *.node[*].veinsmobility.y 0
param *.node[*].veinsmobility.z 0
param *.node[*].veinsmobility.setHostSpeed false
param *.node[*0].veinsmobility.accidentCount 1
param *.node[*0].veinsmobility.accidentStart 73s
param *.node[*0].veinsmobility.accidentDuration 50s

vector 0 RSUExampleScenario.node[0].veinsmobility posx ETV
vector 1 RSUExampleScenario.node[0].veinsmobility posy ETV
vector 2 RSUExampleScenario.node[0].veinsmobility speed ETV
vector 3 RSUExampleScenario.node[0].veinsmobility acceleration ETV
vector 4 RSUExampleScenario.node[0].veinsmobility co2emission ETV
4	53	4	1.9510490285043
4	69	5	2.2435158227827
4	85	6	2.5381442828531
4	101	7	2.8354886819955
4	117	8	3.1361032934899
4	133	9	3.4405423906163
4	149	10	3.7493602466547
4	165	11	4.0631111348851
4	181	12	4.3823493285875
4	197	13	4.7076291010419
4	213	14	5.0395047255283
4	229	15	5.3785304753267
4	245	16	5.7252606237171
4	261	17	4.4650687551759
4	277	18	2.2023608307078
4	293	19	2.2023608307078
4	309	20	2.2023608307078
4	325	21	2.2023608307078
4	341	22	2.2023608307078
4	357	23	2.2023608307078
4	373	24	2.2023608307078
4	389	25	2.2023608307078
4	405	26	2.2023608307078
4	421	27	2.2023608307078
4	437	28	2.2023608307078
4	453	29	2.2023608307078
4	469	30	2.2023608307078
4	485	31	2.2023608307078
4	501	32	2.2023608307078
4	517	33	2.2023608307078
4	533	34	2.2023608307078
4	549	35	2.2023608307078
4	565	36	2.2023608307078
4	581	37	2.2023608307078
4	597	38	2.2023608307078
4	613	39	2.2023608307078
4	629	40	2.2023608307078
4	645	41	2.2023608307078
4	661	42	2.2023608307078
4	677	43	2.2023608307078
4	693	44	2.2023608307078
4	709	45	2.2023608307078
4	725	46	2.2023608307078
4	741	47	2.2023608307078
4	757	48	2.2023608307078
4	773	49	2.2023608307078
4	789	50	2.2023608307078
4	805	51	2.2023608307078
4	821	52	2.2023608307078
4	837	53	2.2023608307078
4	853	54	2.2023608307078
4	869	55	2.2023608307078
4	885	56	2.2023608307078
4	901	57	2.2023608307078
4	917	58	2.2023608307078
4	933	59	2.2023608307078
4	949	60	2.2023608307078
4	965	61	2.2023608307078
4	981	62	2.2023608307078
4	997	63	2.2023608307078
4	1013	64	2.2023608307078
4	1029	65	2.2023608307078
4	1045	66	2.2023608307078
4	1061	67	2.2023608307078
4	1077	68	2.2023608307078
4	1093	69	2.2023608307078
4	1109	70	2.2023608307078
4	1125	71	2.2023608307078
4	1141	72	2.2023608307078
3	53	4	1
3	69	5	1
3	85	6	1
3	101	7	1
3	117	8	1
3	133	9	1
3	149	10	1
3	165	11	1
3	181	12	1
3	197	13	1
3	213	14	1
3	229	15	1
3	245	16	1
3	261	17	0.60551547463652
3	277	18	0
3	293	19	0
3	309	20	0
3	325	21	0
3	341	22	0
3	357	23	0
3	373	24	0
3	389	25	0
3	405	26	0
3	421	27	0
3	437	28	0
3	453	29	0
3	469	30	0
3	485	31	0
3	501	32	0
3	517	33	0
3	533	34	0
3	549	35	0
3	565	36	0
3	581	37	0
3	597	38	0
3	613	39	0
3	629	40	0
3	645	41	0
3	661	42	0
3	677	43	0
3	693	44	0
3	709	45	0
3	725	46	0
3	741	47	0
3	757	48	0
3	773	49	0
3	789	50	0
3	805	51	0
3	821	52	0
3	837	53	0
3	853	54	0
3	869	55	0
3	885	56	0
3	901	57	0
3	917	58	0
3	933	59	0
3	949	60	0
3	965	61	0
3	981	62	0
3	997	63	0
3	1013	64	0
3	1029	65	0
3	1045	66	0
3	1061	67	0
3	1077	68	0
3	1093	69	0
3	1109	70	0
3	1125	71	0
3	1141	72	0
2	37	3	1.9
2	53	4	2.9
2	69	5	3.9
2	85	6	4.9
2	101	7	5.9
2	117	8	6.9
2	133	9	7.9
2	149	10	8.9
2	165	11	9.9
2	181	12	10.9
2	197	13	11.9
2	213	14	12.9
2	229	15	13.9
2	245	16	14.9
2	261	17	15.505515474636
2	277	18	15.505515474636
2	293	19	15.505515474636
2	309	20	15.505515474636
2	325	21	15.505515474636
2	341	22	15.505515474636
2	357	23	15.505515474636
2	373	24	15.505515474636
2	389	25	15.505515474636
2	405	26	15.505515474636
2	421	27	15.505515474636
2	437	28	15.505515474636
2	453	29	15.505515474636
2	469	30	15.505515474636
2	485	31	15.505515474636
2	501	32	15.505515474636
2	517	33	15.505515474636
2	533	34	15.505515474636
2	549	35	15.505515474636
2	565	36	15.505515474636
2	581	37	15.505515474636
2	597	38	15.505515474636
2	613	39	15.505515474636
2	629	40	15.505515474636
2	645	41	15.505515474636
2	661	42	15.505515474636
2	677	43	15.505515474636
2	693	44	15.505515474636
2	709	45	15.505515474636
2	725	46	15.505515474636
2	741	47	15.505515474636
2	757	48	15.505515474636
2	773	49	15.505515474636
2	789	50	15.505515474636
2	805	51	15.505515474636
2	821	52	15.505515474636
2	837	53	15.505515474636
2	853	54	15.505515474636
2	869	55	15.505515474636
2	885	56	15.505515474636
2	901	57	15.505515474636
2	917	58	15.505515474636
2	933	59	15.505515474636
2	949	60	15.505515474636
2	965	61	15.505515474636
2	981	62	15.505515474636
2	997	63	15.505515474636
2	1013	64	15.505515474636
2	1029	65	15.505515474636
2	1045	66	15.505515474636
2	1061	67	15.505515474636
2	1077	68	15.505515474636
2	1093	69	15.505515474636
2	1109	70	15.505515474636
2	1125	71	15.505515474636
2	1141	72	15.505515474636
1	21	2	17
1	37	3	17
1	53	4	17
1	69	5	17
1	85	6	17
1	101	7	17
1	117	8	17
1	133	9	17
1	149	10	17
1	165	11	17
1	181	12	17
1	197	13	17
1	213	14	17
1	229	15	17
1	245	16	17
1	261	17	17
1	277	18	17
1	293	19	17
1	309	20	17
1	325	21	17
1	341	22	17
1	357	23	17
1	373	24	17
1	389	25	17
1	405	26	17
1	421	27	17
1	437	28	17
1	453	29	17
1	469	30	17
1	485	31	17
1	501	32	17
1	517	33	17
1	533	34	17
1	549	35	17
1	565	36	17
1	581	37	17
1	597	38	17
1	613	39	17
1	629	40	17
1	645	41	17
1	661	42	17
1	677	43	17
1	693	44	17
1	709	45	17
1	725	46	17
1	741	47	17
1	757	48	17
1	773	49	17
1	789	50	17
1	805	51	17
1	821	52	17
1	837	53	17
1	853	54	17
1	869	55	17
1	885	56	17
1	901	57	17
1	917	58	17
1	933	59	17
1	949	60	17
1	965	61	17
1	981	62	17
1	997	63	17
1	1013	64	17
1	1029	65	17
1	1045	66	17
1	1061	67	17
1	1077	68	17
1	1093	69	17
1	1109	70	17
1	1125	71	17
1	1141	72	17
0	21	2	520.45
0	37	3	519
0	53	4	516.55
0	69	5	513.1
0	85	6	508.65
0	101	7	503.2
0	117	8	496.75
0	133	9	489.3
0	149	10	480.85
0	165	11	471.4
0	181	12	460.95
0	197	13	449.5
0	213	14	437.05
0	229	15	423.6
0	245	16	409.15
0	261	17	393.79779381015
0	277	18	378.29227833551
0	293	19	362.78676286087
0	309	20	347.28124738624
0	325	21	331.7757319116
0	341	22	316.27021643696
0	357	23	300.76470096233
0	373	24	285.25918548769
0	389	25	269.75367001305
0	405	26	254.24815453842
0	421	27	238.74263906378
0	437	28	223.23712358914
0	453	29	207.73160811451
0	469	30	192.22609263987
0	485	31	176.72057716523
0	501	32	161.2150616906
0	517	33	145.70954621596
0	533	34	130.20403074132
0	549	35	114.69851526669
0	565	36	99.192999792051
0	581	37	83.687484317414
0	597	38	68.181968842777
0	613	39	52.676453368141
0	629	40	37.170937893504
0	645	41	25.991530844838
0	661	42	25.960519813888
0	677	43	25.929508782939
0	693	44	25.89849775199
0	709	45	25.867486721041
0	725	46	25.836475690091
0	741	47	25.805464659142
0	757	48	25.774453628193
0	773	49	25.743442597244
0	789	50	25.712431566294
0	805	51	25.681420535345
0	821	52	25.650409504396
0	837	53	25.619398473446
0	853	54	25.588387442497
0	869	55	25.557376411548
0	885	56	25.526365380599
0	901	57	25.495354349649
0	917	58	25.4643433187
0	933	59	25.433332287751
0	949	60	25.402321256802
0	965	61	25.371310225852
0	981	62	25.340299194903
0	997	63	25.309288163954
0	1013	64	25.278277133004
0	1029	65	25.247266102055
0	1045	66	25.216255071106
0	1061	67	25.185244040157
0	1077	68	25.154233009207
0	1093	69	25.123221978258
0	1109	70	25.092210947309
0	1125	71	25.06119991636
0	1141	72	25.03018888541

