version 2
run General-0-20241119-13:47:48-12476
attr configname General
attr datetime 20241119-13:47:48
attr experiment General
attr inifile omnetpp.ini
attr iterationvars ""
attr iterationvarsf ""
attr measurement ""
attr network RSUExampleScenario
attr processid 12476
attr repetition 0
attr replication #0
attr resultdir results
attr runnumber 0
attr seedset 0
param *.playgroundSizeX 2500m
param *.playgroundSizeY 1500m
param *.playgroundSizeZ 100m
param *.annotations.draw true
param *.manager.updateInterval 1s
param *.manager.host "\"localhost\""
param *.manager.port 9999
param *.manager.autoShutdown true
param *.manager.launchConfig "xmldoc(\"osm.launchd.xml\")"
param *.rsu[0].mobility.x 400
param *.rsu[0].mobility.y 250
param *.rsu[0].mobility.z 4
param *.rsu[*].applType "\"TraCIDemoRSU11p\""
param *.rsu[*].appl.headerLength "80 bit"
param *.rsu[*].appl.sendBeacons true
param *.rsu[*].appl.dataOnSch false
param *.rsu[*].appl.beaconInterval 1s
param *.rsu[*].appl.beaconUserPriority 7
param *.rsu[*].appl.dataUserPriority 5
param *.rsu[*].nic.phy80211p.antennaOffsetZ "0 m"
param *.connectionManager.sendDirect true
param *.connectionManager.maxInterfDist 100m
param *.connectionManager.drawMaxIntfDist false
param *.**.nic.mac1609_4.useServiceChannel false
param *.**.nic.mac1609_4.txPower 20mW
param *.**.nic.mac1609_4.bitrate 6Mbps
param *.**.nic.phy80211p.minPowerLevel -90dBm
param *.**.nic.phy80211p.useNoiseFloor true
param *.**.nic.phy80211p.noiseFloor -98dBm
param *.**.nic.phy80211p.decider "xmldoc(\"config.xml\")"
param *.**.nic.phy80211p.analogueModels "xmldoc(\"config.xml\")"
param *.**.nic.phy80211p.usePropagationDelay true
param *.**.nic.phy80211p.antenna "xmldoc(\"antenna.xml\", \"/root/Antenna[@id='monopole']\")"
param *.node[*].nic.phy80211p.antennaOffsetY "0 m"
param *.node[*].nic.phy80211p.antennaOffsetZ "1.895 m"
param *.node[*].applType "\"MyVeinsApp\""
param *.node[*].appl.headerLength "80 bit"
param *.node[*].appl.sendBeacons false
param *.node[*].appl.dataOnSch false
param *.node[*].appl.beaconInterval 1s
param *.node[*].veinsmobility.x 0
param *.node[*].veinsmobility.y 0
param *.node[*].veinsmobility.z 0
param *.node[*].veinsmobility.setHostSpeed true
param *.node[*0].veinsmobility.accidentCount 1
param *.node[*0].veinsmobility.accidentStart 73s
param *.node[*0].veinsmobility.accidentDuration 50s

vector 0 RSUExampleScenario.node[0].veinsmobility posx ETV
vector 1 RSUExampleScenario.node[0].veinsmobility posy ETV
vector 2 RSUExampleScenario.node[1].veinsmobility posx ETV
vector 3 RSUExampleScenario.node[1].veinsmobility posy ETV
vector 4 RSUExampleScenario.node[0].veinsmobility speed ETV
vector 5 RSUExampleScenario.node[2].veinsmobility posx ETV
vector 6 RSUExampleScenario.node[2].veinsmobility posy ETV
vector 7 RSUExampleScenario.node[0].veinsmobility acceleration ETV
vector 8 RSUExampleScenario.node[0].veinsmobility co2emission ETV
vector 9 RSUExampleScenario.node[1].veinsmobility speed ETV
vector 10 RSUExampleScenario.node[3].veinsmobility posx ETV
vector 11 RSUExampleScenario.node[3].veinsmobility posy ETV
vector 12 RSUExampleScenario.node[1].veinsmobility acceleration ETV
vector 13 RSUExampleScenario.node[1].veinsmobility co2emission ETV
vector 14 RSUExampleScenario.node[2].veinsmobility speed ETV
vector 15 RSUExampleScenario.node[4].veinsmobility posx ETV
vector 16 RSUExampleScenario.node[4].veinsmobility posy ETV
vector 17 RSUExampleScenario.node[2].veinsmobility acceleration ETV
vector 18 RSUExampleScenario.node[2].veinsmobility co2emission ETV
vector 19 RSUExampleScenario.node[3].veinsmobility speed ETV
vector 20 RSUExampleScenario.node[5].veinsmobility posx ETV
vector 21 RSUExampleScenario.node[5].veinsmobility posy ETV
vector 22 RSUExampleScenario.node[3].veinsmobility acceleration ETV
vector 23 RSUExampleScenario.node[3].veinsmobility co2emission ETV
vector 24 RSUExampleScenario.node[4].veinsmobility speed ETV
vector 25 RSUExampleScenario.node[6].veinsmobility posx ETV
vector 26 RSUExampleScenario.node[6].veinsmobility posy ETV
vector 27 RSUExampleScenario.node[4].veinsmobility acceleration ETV
vector 28 RSUExampleScenario.node[4].veinsmobility co2emission ETV
vector 29 RSUExampleScenario.node[5].veinsmobility speed ETV
vector 30 RSUExampleScenario.node[7].veinsmobility posx ETV
vector 31 RSUExampleScenario.node[7].veinsmobility posy ETV
vector 32 RSUExampleScenario.node[5].veinsmobility acceleration ETV
vector 33 RSUExampleScenario.node[5].veinsmobility co2emission ETV
vector 34 RSUExampleScenario.node[6].veinsmobility speed ETV
vector 35 RSUExampleScenario.node[6].veinsmobility acceleration ETV
vector 36 RSUExampleScenario.node[6].veinsmobility co2emission ETV
vector 37 RSUExampleScenario.node[7].veinsmobility speed ETV
vector 38 RSUExampleScenario.node[8].veinsmobility posx ETV
vector 39 RSUExampleScenario.node[8].veinsmobility posy ETV
vector 40 RSUExampleScenario.node[9].veinsmobility posx ETV
vector 41 RSUExampleScenario.node[9].veinsmobility posy ETV
vector 42 RSUExampleScenario.node[7].veinsmobility acceleration ETV
vector 43 RSUExampleScenario.node[7].veinsmobility co2emission ETV
vector 44 RSUExampleScenario.node[8].veinsmobility speed ETV
vector 45 RSUExampleScenario.node[9].veinsmobility speed ETV
vector 46 RSUExampleScenario.node[10].veinsmobility posx ETV
vector 47 RSUExampleScenario.node[10].veinsmobility posy ETV
vector 48 RSUExampleScenario.node[8].veinsmobility acceleration ETV
vector 49 RSUExampleScenario.node[8].veinsmobility co2emission ETV
vector 50 RSUExampleScenario.node[9].veinsmobility acceleration ETV
vector 51 RSUExampleScenario.node[9].veinsmobility co2emission ETV
vector 52 RSUExampleScenario.node[11].veinsmobility posx ETV
vector 53 RSUExampleScenario.node[11].veinsmobility posy ETV
vector 54 RSUExampleScenario.node[10].veinsmobility speed ETV
vector 55 RSUExampleScenario.node[12].veinsmobility posx ETV
vector 56 RSUExampleScenario.node[12].veinsmobility posy ETV
vector 57 RSUExampleScenario.node[13].veinsmobility posx ETV
vector 58 RSUExampleScenario.node[13].veinsmobility posy ETV
vector 59 RSUExampleScenario.node[10].veinsmobility acceleration ETV
vector 60 RSUExampleScenario.node[10].veinsmobility co2emission ETV
vector 61 RSUExampleScenario.node[11].veinsmobility speed ETV
vector 62 RSUExampleScenario.node[14].veinsmobility posx ETV
vector 63 RSUExampleScenario.node[14].veinsmobility posy ETV
vector 64 RSUExampleScenario.node[11].veinsmobility acceleration ETV
vector 65 RSUExampleScenario.node[11].veinsmobility co2emission ETV
vector 66 RSUExampleScenario.node[12].veinsmobility speed ETV
vector 67 RSUExampleScenario.node[13].veinsmobility speed ETV
vector 68 RSUExampleScenario.node[15].veinsmobility posx ETV
vector 69 RSUExampleScenario.node[15].veinsmobility posy ETV
vector 70 RSUExampleScenario.node[12].veinsmobility acceleration ETV
vector 71 RSUExampleScenario.node[12].veinsmobility co2emission ETV
vector 72 RSUExampleScenario.node[13].veinsmobility acceleration ETV
vector 73 RSUExampleScenario.node[13].veinsmobility co2emission ETV
vector 74 RSUExampleScenario.node[14].veinsmobility speed ETV
vector 75 RSUExampleScenario.node[16].veinsmobility posx ETV
vector 76 RSUExampleScenario.node[16].veinsmobility posy ETV
vector 77 RSUExampleScenario.node[14].veinsmobility acceleration ETV
vector 78 RSUExampleScenario.node[14].veinsmobility co2emission ETV
vector 79 RSUExampleScenario.node[15].veinsmobility speed ETV
vector 80 RSUExampleScenario.node[15].veinsmobility acceleration ETV
vector 81 RSUExampleScenario.node[15].veinsmobility co2emission ETV
vector 82 RSUExampleScenario.node[16].veinsmobility speed ETV
vector 83 RSUExampleScenario.node[17].veinsmobility posx ETV
vector 84 RSUExampleScenario.node[17].veinsmobility posy ETV
vector 85 RSUExampleScenario.node[16].veinsmobility acceleration ETV
vector 86 RSUExampleScenario.node[16].veinsmobility co2emission ETV
vector 87 RSUExampleScenario.node[18].veinsmobility posx ETV
vector 88 RSUExampleScenario.node[18].veinsmobility posy ETV
vector 89 RSUExampleScenario.node[17].veinsmobility speed ETV
vector 90 RSUExampleScenario.node[19].veinsmobility posx ETV
vector 91 RSUExampleScenario.node[19].veinsmobility posy ETV
vector 92 RSUExampleScenario.node[17].veinsmobility acceleration ETV
vector 93 RSUExampleScenario.node[17].veinsmobility co2emission ETV
vector 94 RSUExampleScenario.node[18].veinsmobility speed ETV
43	251	10	3.3898855457808
43	294	11	5.0057228617974
43	337	12	5.3200786105784
43	368	13	8.0007417879172
43	399	14	8.9590854356249
43	430	15	2.4883156506006
43	461	16	0.973
43	492	17	1.6150615360858
43	523	18	5.264984066085
43	554	19	4.1116532883222
43	573	20	1.7555645934929
43	592	21	2.3222164477703
42	251	10	2.2169354937272
42	294	11	2.3636888966663
42	337	12	1.91023722135
42	368	13	2.4474117824575
42	399	14	2.263068038784
42	430	15	0.17231979648722
42	461	16	-3.8816152232311
42	492	17	-0.004035124078138
42	523	18	1.388996877335
42	554	19	0.84189756371486
42	573	20	-0.014761761017144
42	592	21	0.18304643549491
37	208	9	1.6874481278472
37	251	10	3.9043836215744
37	294	11	6.2680725182407
37	337	12	8.1783097395906
37	368	13	10.625721522048
37	399	14	12.888789560832
37	430	15	13.061109357319
37	461	16	9.1794941340882
37	492	17	9.1754590100101
37	523	18	10.564455887345
37	554	19	11.40635345106
37	573	20	11.391591690043
37	592	21	11.574638125538
31	165	8	142.29
31	208	9	144.03721507548
31	251	10	147.93616462103
31	294	11	154.19551330835
31	337	12	162.39479837161
31	368	13	173.08861620016
31	399	14	186.04998148581
31	430	15	199.07947377484
31	461	16	208.13904774785
31	492	17	217.37607935299
31	523	18	226.89367129118
31	554	19	236.35036228562
31	573	20	246.6695683294
31	592	21	256.78368197973
30	165	8	712.04755287009
30	208	9	715.21778600249
30	251	10	715.16616228028
30	294	11	715.08328588651
30	337	12	715.00016879689
30	368	13	714.92375565709
30	399	14	714.68176355666
30	430	15	712.95699701301
30	461	16	711.14783972554
30	492	17	709.19679626646
30	523	18	704.2188041031
30	554	19	699.09728463905
30	573	20	697.92465060829
30	592	21	700.90991097321
73	461	16	3.6988214322656
73	492	17	4.9159348562454
73	523	18	5.9455263925233
73	554	19	5.6332121900007
73	573	20	7.9859108384102
73	592	21	0.973
72	461	16	2.3722520300886
72	492	17	2.2469784176908
72	523	18	2.1227955877548
72	554	19	1.6103685823036
72	573	20	2.0769245595904
72	592	21	-0.30861566175439
67	430	15	1.7928180593066
67	461	16	4.1650700893952
67	492	17	6.412048507086
67	523	18	8.5348440948408
67	554	19	10.145212677144
67	573	20	12.222137236735
67	592	21	11.91352157498
58	399	14	298.06782018111
58	430	15	298.19712109548
58	461	16	298.49751263168
58	492	17	298.95995985583
58	523	18	299.57550650304
58	554	19	300.30719551565
58	573	20	301.18867565918
58	592	21	302.04789794612
57	399	14	702.82319534282
57	430	15	701.03501588134
57	461	16	696.88072216992
57	492	17	690.48526369778
57	523	18	681.97250199387
57	554	19	671.85353824992
57	573	20	659.66302361923
57	592	21	647.78032616217
vector 95 RSUExampleScenario.node[20].veinsmobility posx ETV
vector 96 RSUExampleScenario.node[20].veinsmobility posy ETV
vector 97 RSUExampleScenario.node[18].veinsmobility acceleration ETV
vector 98 RSUExampleScenario.node[18].veinsmobility co2emission ETV
vector 99 RSUExampleScenario.node[19].veinsmobility speed ETV
vector 100 RSUExampleScenario.node[21].veinsmobility posx ETV
vector 101 RSUExampleScenario.node[21].veinsmobility posy ETV
vector 102 RSUExampleScenario.node[19].veinsmobility acceleration ETV
vector 103 RSUExampleScenario.node[19].veinsmobility co2emission ETV
vector 104 RSUExampleScenario.node[20].veinsmobility speed ETV
vector 105 RSUExampleScenario.node[22].veinsmobility posx ETV
vector 106 RSUExampleScenario.node[22].veinsmobility posy ETV
vector 107 RSUExampleScenario.node[20].veinsmobility acceleration ETV
vector 108 RSUExampleScenario.node[20].veinsmobility co2emission ETV
vector 109 RSUExampleScenario.node[21].veinsmobility speed ETV
vector 110 RSUExampleScenario.node[23].veinsmobility posx ETV
vector 111 RSUExampleScenario.node[23].veinsmobility posy ETV
vector 112 RSUExampleScenario.node[21].veinsmobility acceleration ETV
vector 113 RSUExampleScenario.node[21].veinsmobility co2emission ETV
vector 114 RSUExampleScenario.node[22].veinsmobility speed ETV
vector 115 RSUExampleScenario.node[24].veinsmobility posx ETV
vector 116 RSUExampleScenario.node[24].veinsmobility posy ETV
vector 117 RSUExampleScenario.node[22].veinsmobility acceleration ETV
vector 118 RSUExampleScenario.node[22].veinsmobility co2emission ETV
vector 119 RSUExampleScenario.node[23].veinsmobility speed ETV
vector 120 RSUExampleScenario.node[25].veinsmobility posx ETV
vector 121 RSUExampleScenario.node[25].veinsmobility posy ETV
vector 122 RSUExampleScenario.node[23].veinsmobility acceleration ETV
vector 123 RSUExampleScenario.node[23].veinsmobility co2emission ETV
vector 124 RSUExampleScenario.node[24].veinsmobility speed ETV
vector 125 RSUExampleScenario.node[26].veinsmobility posx ETV
vector 126 RSUExampleScenario.node[26].veinsmobility posy ETV
vector 127 RSUExampleScenario.node[24].veinsmobility acceleration ETV
vector 128 RSUExampleScenario.node[24].veinsmobility co2emission ETV
vector 129 RSUExampleScenario.node[25].veinsmobility speed ETV
vector 130 RSUExampleScenario.node[27].veinsmobility posx ETV
vector 131 RSUExampleScenario.node[27].veinsmobility posy ETV
vector 132 RSUExampleScenario.node[25].veinsmobility acceleration ETV
vector 133 RSUExampleScenario.node[25].veinsmobility co2emission ETV
vector 134 RSUExampleScenario.node[26].veinsmobility speed ETV
vector 135 RSUExampleScenario.node[28].veinsmobility posx ETV
vector 136 RSUExampleScenario.node[28].veinsmobility posy ETV
vector 137 RSUExampleScenario.node[26].veinsmobility acceleration ETV
vector 138 RSUExampleScenario.node[26].veinsmobility co2emission ETV
vector 139 RSUExampleScenario.node[27].veinsmobility speed ETV
vector 140 RSUExampleScenario.node[29].veinsmobility posx ETV
vector 141 RSUExampleScenario.node[29].veinsmobility posy ETV
vector 142 RSUExampleScenario.node[27].veinsmobility acceleration ETV
vector 143 RSUExampleScenario.node[27].veinsmobility co2emission ETV
vector 144 RSUExampleScenario.node[28].veinsmobility speed ETV
vector 145 RSUExampleScenario.node[30].veinsmobility posx ETV
vector 146 RSUExampleScenario.node[30].veinsmobility posy ETV
vector 147 RSUExampleScenario.node[28].veinsmobility acceleration ETV
vector 148 RSUExampleScenario.node[28].veinsmobility co2emission ETV
vector 149 RSUExampleScenario.node[29].veinsmobility speed ETV
108	673	24	3.0241559535281
108	716	25	3.4514863686906
108	759	26	4.9296393074512
108	802	27	8.0039352789527
108	845	28	4.2369441946668
108	888	29	1.7231421794458
108	943	30	1.7277678151085
108	998	31	3.4599008665214
108	1041	32	2.7540698324939
107	673	24	1.7292667902773
107	716	25	1.5166667717975
107	759	26	1.8890440943418
107	802	27	2.5926332155941
107	845	28	0.92945583651506
107	888	29	-0.015698678302579
107	943	30	-0.013555045519023
107	998	31	0.58956595039926
107	1041	32	0.31829167620745
104	642	23	2.3735365288565
104	673	24	4.1028033191338
104	716	25	5.6194700909313
104	759	26	7.5085141852731
104	802	27	10.101147400867
104	845	28	11.030603237382
104	888	29	11.01490455908
104	943	30	11.001349513561
104	998	31	11.59091546396
104	1041	32	11.909207140167
96	611	22	141.5080861244
96	642	23	139.64559813047
96	673	24	136.4233425899
96	716	25	131.99972516745
96	759	26	126.1014598427
96	802	27	118.16656806723
96	845	28	109.50154820035
96	888	29	100.84886032987
96	943	30	92.206820538748
96	998	31	83.101650983726
96	1041	32	73.746449436939
95	611	22	521.72727272727
95	642	23	520.25999560034
95	673	24	517.7210658979
95	716	25	514.23402990757
95	759	26	509.58808068827
95	802	27	503.33792030725
95	845	28	496.51265218701
95	888	29	489.6970977412
95	943	30	482.88993058102
95	998	31	475.71796508665
95	1041	32	468.3490542409
vector 150 RSUExampleScenario.node[31].veinsmobility posx ETV
vector 151 RSUExampleScenario.node[31].veinsmobility posy ETV
vector 152 RSUExampleScenario.node[29].veinsmobility acceleration ETV
vector 153 RSUExampleScenario.node[29].veinsmobility co2emission ETV
vector 154 RSUExampleScenario.node[30].veinsmobility speed ETV
vector 155 RSUExampleScenario.node[32].veinsmobility posx ETV
vector 156 RSUExampleScenario.node[32].veinsmobility posy ETV
vector 157 RSUExampleScenario.node[30].veinsmobility acceleration ETV
vector 158 RSUExampleScenario.node[30].veinsmobility co2emission ETV
vector 159 RSUExampleScenario.node[31].veinsmobility speed ETV
vector 160 RSUExampleScenario.node[33].veinsmobility posx ETV
vector 161 RSUExampleScenario.node[33].veinsmobility posy ETV
vector 162 RSUExampleScenario.node[31].veinsmobility acceleration ETV
vector 163 RSUExampleScenario.node[31].veinsmobility co2emission ETV
vector 164 RSUExampleScenario.node[32].veinsmobility speed ETV
vector 165 RSUExampleScenario.node[34].veinsmobility posx ETV
vector 166 RSUExampleScenario.node[34].veinsmobility posy ETV
vector 167 RSUExampleScenario.node[32].veinsmobility acceleration ETV
vector 168 RSUExampleScenario.node[32].veinsmobility co2emission ETV
vector 169 RSUExampleScenario.node[33].veinsmobility speed ETV
vector 170 RSUExampleScenario.node[35].veinsmobility posx ETV
vector 171 RSUExampleScenario.node[35].veinsmobility posy ETV
vector 172 RSUExampleScenario.node[33].veinsmobility acceleration ETV
vector 173 RSUExampleScenario.node[33].veinsmobility co2emission ETV
vector 174 RSUExampleScenario.node[34].veinsmobility speed ETV
vector 175 RSUExampleScenario.node[36].veinsmobility posx ETV
vector 176 RSUExampleScenario.node[36].veinsmobility posy ETV
vector 177 RSUExampleScenario.node[34].veinsmobility acceleration ETV
vector 178 RSUExampleScenario.node[34].veinsmobility co2emission ETV
vector 179 RSUExampleScenario.node[35].veinsmobility speed ETV
vector 180 RSUExampleScenario.node[35].veinsmobility acceleration ETV
vector 181 RSUExampleScenario.node[35].veinsmobility co2emission ETV
vector 182 RSUExampleScenario.node[36].veinsmobility speed ETV
vector 183 RSUExampleScenario.node[37].veinsmobility posx ETV
vector 184 RSUExampleScenario.node[37].veinsmobility posy ETV
vector 185 RSUExampleScenario.node[36].veinsmobility acceleration ETV
vector 186 RSUExampleScenario.node[36].veinsmobility co2emission ETV
vector 187 RSUExampleScenario.node[38].veinsmobility posx ETV
vector 188 RSUExampleScenario.node[38].veinsmobility posy ETV
vector 189 RSUExampleScenario.node[39].veinsmobility posx ETV
vector 190 RSUExampleScenario.node[39].veinsmobility posy ETV
vector 191 RSUExampleScenario.node[37].veinsmobility speed ETV
vector 192 RSUExampleScenario.node[40].veinsmobility posx ETV
vector 193 RSUExampleScenario.node[40].veinsmobility posy ETV
vector 194 RSUExampleScenario.node[37].veinsmobility acceleration ETV
vector 195 RSUExampleScenario.node[37].veinsmobility co2emission ETV
vector 196 RSUExampleScenario.node[38].veinsmobility speed ETV
vector 197 RSUExampleScenario.node[39].veinsmobility speed ETV
vector 198 RSUExampleScenario.node[38].veinsmobility acceleration ETV
vector 199 RSUExampleScenario.node[38].veinsmobility co2emission ETV
vector 200 RSUExampleScenario.node[39].veinsmobility acceleration ETV
vector 201 RSUExampleScenario.node[39].veinsmobility co2emission ETV
vector 202 RSUExampleScenario.node[40].veinsmobility speed ETV
vector 203 RSUExampleScenario.node[41].veinsmobility posx ETV
vector 204 RSUExampleScenario.node[41].veinsmobility posy ETV
vector 205 RSUExampleScenario.node[40].veinsmobility acceleration ETV
vector 206 RSUExampleScenario.node[40].veinsmobility co2emission ETV
vector 207 RSUExampleScenario.node[41].veinsmobility speed ETV
vector 208 RSUExampleScenario.node[42].veinsmobility posx ETV
vector 209 RSUExampleScenario.node[42].veinsmobility posy ETV
vector 210 RSUExampleScenario.node[43].veinsmobility posx ETV
vector 211 RSUExampleScenario.node[43].veinsmobility posy ETV
vector 212 RSUExampleScenario.node[41].veinsmobility acceleration ETV
vector 213 RSUExampleScenario.node[41].veinsmobility co2emission ETV
vector 214 RSUExampleScenario.node[44].veinsmobility posx ETV
vector 215 RSUExampleScenario.node[44].veinsmobility posy ETV
vector 216 RSUExampleScenario.node[45].veinsmobility posx ETV
vector 217 RSUExampleScenario.node[45].veinsmobility posy ETV
vector 218 RSUExampleScenario.node[42].veinsmobility speed ETV
vector 219 RSUExampleScenario.node[43].veinsmobility speed ETV
vector 220 RSUExampleScenario.node[46].veinsmobility posx ETV
vector 221 RSUExampleScenario.node[46].veinsmobility posy ETV
vector 222 RSUExampleScenario.node[42].veinsmobility acceleration ETV
vector 223 RSUExampleScenario.node[42].veinsmobility co2emission ETV
vector 224 RSUExampleScenario.node[43].veinsmobility acceleration ETV
vector 225 RSUExampleScenario.node[43].veinsmobility co2emission ETV
vector 226 RSUExampleScenario.node[44].veinsmobility speed ETV
vector 227 RSUExampleScenario.node[45].veinsmobility speed ETV
vector 228 RSUExampleScenario.node[47].veinsmobility posx ETV
vector 229 RSUExampleScenario.node[47].veinsmobility posy ETV
vector 230 RSUExampleScenario.node[44].veinsmobility acceleration ETV
vector 231 RSUExampleScenario.node[44].veinsmobility co2emission ETV
vector 232 RSUExampleScenario.node[45].veinsmobility acceleration ETV
vector 233 RSUExampleScenario.node[45].veinsmobility co2emission ETV
vector 234 RSUExampleScenario.node[46].veinsmobility speed ETV
vector 235 RSUExampleScenario.node[48].veinsmobility posx ETV
vector 236 RSUExampleScenario.node[48].veinsmobility posy ETV
vector 237 RSUExampleScenario.node[46].veinsmobility acceleration ETV
vector 238 RSUExampleScenario.node[46].veinsmobility co2emission ETV
vector 239 RSUExampleScenario.node[47].veinsmobility speed ETV
vector 240 RSUExampleScenario.node[49].veinsmobility posx ETV
vector 241 RSUExampleScenario.node[49].veinsmobility posy ETV
vector 242 RSUExampleScenario.node[47].veinsmobility acceleration ETV
vector 243 RSUExampleScenario.node[47].veinsmobility co2emission ETV
vector 244 RSUExampleScenario.node[48].veinsmobility speed ETV
vector 245 RSUExampleScenario.node[50].veinsmobility posx ETV
vector 246 RSUExampleScenario.node[50].veinsmobility posy ETV
vector 247 RSUExampleScenario.node[48].veinsmobility acceleration ETV
vector 248 RSUExampleScenario.node[48].veinsmobility co2emission ETV
vector 249 RSUExampleScenario.node[49].veinsmobility speed ETV
vector 250 RSUExampleScenario.node[49].veinsmobility acceleration ETV
vector 251 RSUExampleScenario.node[49].veinsmobility co2emission ETV
vector 252 RSUExampleScenario.node[50].veinsmobility speed ETV
vector 253 RSUExampleScenario.node[51].veinsmobility posx ETV
vector 254 RSUExampleScenario.node[51].veinsmobility posy ETV
vector 255 RSUExampleScenario.node[50].veinsmobility acceleration ETV
vector 256 RSUExampleScenario.node[50].veinsmobility co2emission ETV
vector 257 RSUExampleScenario.node[52].veinsmobility posx ETV
vector 258 RSUExampleScenario.node[52].veinsmobility posy ETV
vector 259 RSUExampleScenario.node[53].veinsmobility posx ETV
vector 260 RSUExampleScenario.node[53].veinsmobility posy ETV
vector 261 RSUExampleScenario.node[51].veinsmobility speed ETV
138	943	30	3.3406496322128
138	998	31	3.2218736423993
138	1041	32	6.2552431319791
138	1084	33	6.321259044721
138	1139	34	8.5478257177456
138	1182	35	2.18662124084
138	1225	36	0.973
138	1268	37	0.973
138	1311	38	0.973
138	1354	39	0.973
138	1397	40	0.973
138	1428	41	2.1691336775409
138	1471	42	2.4265303666207
138	1514	43	4.0909629983435
138	1557	44	4.8775396353532
138	1588	45	4.8177657774006
138	1619	46	4.2115724349731
138	1674	47	2.9681612067751
138	1729	48	1.9736150059549
138	1784	49	0.973
138	1839	50	0.973
138	1906	51	0.973
138	1961	52	3.4121812933899
138	2016	53	0.973
138	2083	54	3.475667028828
138	2150	55	1.3271103569387
137	943	30	2.1987981781596
137	998	31	1.4444757229416
137	1041	32	2.5117295373231
137	1084	33	1.9742541732965
137	1139	34	2.2990308515728
137	1182	35	0.10942478453205
137	1225	36	-1.7374385873309
137	1268	37	-4.3900917279301
137	1311	38	-3.9619684115285
137	1354	39	-1.0130027217575
137	1397	40	-0.86552691219224
137	1428	41	1.8854387812782
137	1471	42	1.3679502059007
137	1514	43	2.0340808888432
137	1557	44	1.8916518694023
137	1588	45	1.4985727415653
137	1619	46	1.0549448026982
137	1674	47	0.49590671665501
137	1729	48	0.097012926032766
137	1784	49	-0.28830792191438
137	1839	50	-0.42614241307601
137	1906	51	-0.36074910478201
137	1961	52	0.69949416907039
137	2016	53	-0.70913259682711
137	2083	54	0.72388369746041
137	2150	55	-0.14900361050386
134	888	29	1.6503413632512
134	943	30	3.8491395414108
134	998	31	5.2936152643524
134	1041	32	7.8053448016755
134	1084	33	9.779598974972
134	1139	34	12.078629826545
134	1182	35	12.188054611077
134	1225	36	10.450616023746
134	1268	37	6.0605242958158
134	1311	38	2.0985558842873
134	1354	39	1.0855531625298
134	1397	40	0.22002625033754
134	1428	41	2.1054650316157
134	1471	42	3.4734152375165
134	1514	43	5.5074961263596
134	1557	44	7.3991479957619
134	1588	45	8.8977207373272
134	1619	46	9.9526655400254
134	1674	47	10.44857225668
134	1729	48	10.545585182713
134	1784	49	10.257277260799
134	1839	50	9.8311348477228
134	1906	51	9.4703857429408
134	1961	52	10.169879912011
134	2016	53	9.460747315184
134	2083	54	10.184631012644
134	2150	55	10.035627402141
126	845	28	142.29
126	888	29	143.94052277085
126	943	30	147.84394230911
126	998	31	153.13018998089
126	1041	32	160.94579836389
126	1084	33	170.78807115992
126	1139	34	182.94410844319
126	1182	35	195.12687238484
126	1225	36	205.47726627701
126	1268	37	211.43312982809
126	1311	38	213.48896360457
126	1354	39	214.55241722732
126	1397	40	214.77786402811
126	1428	41	217.04890342167
126	1471	42	220.79881696949
126	1514	43	225.59259860117
126	1557	44	231.30713724225
126	1588	45	239.04347914703
126	1619	46	248.10979889748
126	1674	47	257.14799091064
126	1729	48	264.90983657933
126	1784	49	269.45603060475
126	1839	50	270.86485959203
126	1906	51	270.15111306815
126	1961	52	264.37726390312
126	2016	53	257.19402723576
126	2083	54	248.35791075681
126	2150	55	239.30747917824
125	845	28	712.04755287009
125	888	29	712.01827662776
125	943	30	715.16738334225
125	998	31	715.0973912128
125	1041	32	715.01052268939
125	1084	33	714.9401943016
125	1139	34	714.85333280917
125	1182	35	713.52344389716
125	1225	36	711.68400035104
125	1268	37	710.37218403452
125	1311	38	709.88809798879
125	1354	39	709.63768715065
125	1397	40	709.59352974421
125	1428	41	709.24675426795
125	1471	42	708.77045240013
125	1514	43	705.49578285441
125	1557	44	701.26855282757
125	1588	45	698.40897686979
125	1619	46	698.07493553713
125	1674	47	701.08900033948
125	1729	48	707.33481615174
125	1784	49	715.82997480345
125	1839	50	724.36046191673
125	1906	51	733.45386895078
125	1961	52	741.64816355597
125	2016	53	747.24546182119
125	2083	54	750.22052179463
125	2150	55	750.14163300924
vector 262 RSUExampleScenario.node[54].veinsmobility posx ETV
vector 263 RSUExampleScenario.node[54].veinsmobility posy ETV
vector 264 RSUExampleScenario.node[51].veinsmobility acceleration ETV
vector 265 RSUExampleScenario.node[51].veinsmobility co2emission ETV
vector 266 RSUExampleScenario.node[52].veinsmobility speed ETV
vector 267 RSUExampleScenario.node[53].veinsmobility speed ETV
vector 268 RSUExampleScenario.node[52].veinsmobility acceleration ETV
vector 269 RSUExampleScenario.node[52].veinsmobility co2emission ETV
vector 270 RSUExampleScenario.node[53].veinsmobility acceleration ETV
vector 271 RSUExampleScenario.node[53].veinsmobility co2emission ETV
vector 272 RSUExampleScenario.node[54].veinsmobility speed ETV
49	337	12	0.973
49	368	13	1.5527970371283
49	399	14	0.973
49	430	15	1.1109903925159
49	461	16	1.1102654954289
49	492	17	2.7930426885109
49	523	18	1.5810611164362
49	554	19	2.7759553375227
49	573	20	0.973
49	592	21	4.1044616576012
49	611	22	3.8559705300074
49	642	23	7.5531853618525
49	673	24	6.2523756893853
49	716	25	5.5086564437358
49	759	26	3.3805234010373
49	802	27	1.3149606595129
49	845	28	4.2436799802936
49	888	29	0.973
49	943	30	0.973
49	998	31	4.6425348553542
49	1041	32	0.973
49	1084	33	2.1783236023674
49	1139	34	0.973
49	1182	35	0.973
49	1225	36	0.973
49	1268	37	0.973
49	1311	38	2.3947984059946
49	1354	39	1.8622523360013
49	1397	40	2.0312746049151
49	1428	41	3.4283968586386
49	1471	42	1.5346223463839
49	1514	43	5.4567599166351
49	1557	44	6.8958576967328
49	1588	45	9.2526317467063
49	1619	46	0.973
49	1674	47	0.973
49	1729	48	1.2914847976411
49	1784	49	3.971388125513
49	1839	50	4.7356065637586
49	1906	51	5.3430651824294
49	1961	52	0.973
49	2016	53	0.973
49	2083	54	7.7002037613486
49	2150	55	0.973
49	2205	56	0.973
49	2260	57	6.6029152981486
48	337	12	-0.80685310614705
48	368	13	0.75014659751074
48	399	14	-1.8237879662689
48	430	15	-0.074107707696429
48	461	16	-0.026265119839065
48	492	17	2.5399756147233
48	523	18	0.44896052870113
48	554	19	1.3744604587322
48	573	20	-0.34495837542822
48	592	21	1.8878835048294
48	611	22	1.3487495984649
48	642	23	2.5016913218657
48	673	24	1.6239798524184
48	716	25	1.1903438195916
48	759	26	0.45747747484129
48	802	27	-0.19709334634244
48	845	28	0.69081287942827
48	888	29	-0.3409395563649
48	943	30	-0.51233998106327
48	998	31	0.81648225055542
48	1041	32	-0.8839844772825
48	1084	33	0.087238055956549
48	1139	34	-2.8175655666465
48	1182	35	-2.5373563326183
48	1225	36	-2.9607901215056
48	1268	37	-2.4211713431848
48	1311	38	1.3884941741198
48	1354	39	0.58733416841383
48	1397	40	0.62951655518613
48	1428	41	1.3994688227112
48	1471	42	0.07753012564499
48	1514	43	2.0141907175654
48	1557	44	2.1197538748384
48	1588	45	2.421393672796
48	1619	46	-3.8151741438644
48	1674	47	-2.0638533706462
48	1729	48	-0.10307222274059
48	1784	49	1.2800362225604
48	1839	50	1.3876754304394
48	1906	51	1.4004263908179
48	1961	52	-2.3113265375723
48	2016	53	-1.1820827938092
48	2083	54	2.5665463148267
48	2150	55	-1.7739956303179
48	2205	56	-1.2727727528196
48	2260	57	2.2991186544532
44	294	11	1.9872021803498
44	337	12	1.1803490742027
44	368	13	1.9304956717134
44	399	14	0.10670770544456
44	430	15	0.032599997748131
44	461	16	0.0063348779090659
44	492	17	2.5463104926323
44	523	18	2.9952710213335
44	554	19	4.3697314800657
44	573	20	4.0247731046375
44	592	21	5.9126566094668
44	611	22	7.2614062079318
44	642	23	9.7630975297974
44	673	24	11.387077382216
44	716	25	12.577421201807
44	759	26	13.034898676649
44	802	27	12.837805330306
44	845	28	13.528618209735
44	888	29	13.18767865337
44	943	30	12.675338672306
44	998	31	13.491820922862
44	1041	32	12.607836445579
44	1084	33	12.695074501536
44	1139	34	9.8775089348894
44	1182	35	7.3401526022711
44	1225	36	4.3793624807655
44	1268	37	1.9581911375806
44	1311	38	3.3466853117005
44	1354	39	3.9340194801143
44	1397	40	4.5635360353004
44	1428	41	5.9630048580116
44	1471	42	6.0405349836566
44	1514	43	8.0547257012219
44	1557	44	10.17447957606
44	1588	45	12.595873248856
44	1619	46	8.7806991049919
44	1674	47	6.7168457343457
44	1729	48	6.6137735116051
44	1784	49	7.8938097341656
44	1839	50	9.281485164605
44	1906	51	10.681911555423
44	1961	52	8.3705850178506
44	2016	53	7.1885022240414
44	2083	54	9.7550485388681
44	2150	55	7.9810529085501
44	2205	56	6.7082801557305
44	2260	57	9.0073988101837
39	251	10	141.5080861244
39	294	11	139.94875044221
39	337	12	139.02254351317
39	368	13	137.50770480427
39	399	14	137.4239724421
39	430	15	137.39839158263
39	461	16	137.39342067364
39	492	17	137.13048998292
39	523	18	139.88265285885
39	554	19	143.3115330633
39	573	20	146.46972822675
39	592	21	150.89928494249
39	611	22	155.34370608851
39	642	23	157.12322720957
39	673	24	156.44514043497
39	716	25	156.13822540654
39	759	26	155.8201469838
39	802	27	155.50687804537
39	845	28	155.17675184733
39	888	29	154.85494527793
39	943	30	154.54564086118
39	998	31	154.21641259286
39	1041	32	153.90875536972
39	1084	33	153.59896935802
39	1139	34	153.35793775965
39	1182	35	153.17882289115
39	1225	36	153.07195741064
39	1268	37	153.02417350653
39	1311	38	152.94250747967
39	1354	39	152.84650928726
39	1397	40	152.73514959201
39	1428	41	153.58623614984
39	1471	42	158.90904016776
39	1514	43	166.91339877128
39	1557	44	177.02425619237
39	1588	45	189.50180379121
39	1619	46	198.1526665379
39	1674	47	204.69884700777
39	1729	48	211.11550267338
39	1784	49	218.43810443759
39	1839	50	225.58227664786
39	1906	51	235.41376301752
39	1961	52	244.17571314726
39	2016	53	251.85800107723
39	2083	54	261.34755792468
39	2150	55	267.31842174113
39	2205	56	271.3010818218
39	2260	57	273.80482188391
38	251	10	521.72727272727
38	294	11	520.49882047033
38	337	12	519.76915013355
38	368	13	518.57575280922
38	399	14	518.50978804585
38	430	15	518.48963531997
38	461	16	518.48571921363
38	492	17	516.12754790925
38	523	18	516.36761756058
38	554	19	519.07308767312
38	573	20	521.56498068623
38	592	21	525.47690933784
38	611	22	531.16561629193
38	642	23	540.60258470656
38	673	24	551.96659719266
38	716	25	564.5405471758
38	759	26	577.57184837544
38	802	27	590.40611062417
38	845	28	603.93099509618
38	888	29	617.11503410708
38	943	30	629.78687453667
38	998	31	643.27497187742
38	1041	32	655.87932871009
38	1084	33	668.57089952206
38	1139	34	678.44568238196
38	1182	35	685.78380918941
38	1225	36	690.16196301822
38	1268	37	692.11961371833
38	1311	38	695.46537538469
38	1354	39	699.39830912222
38	1397	40	703.96058567585
38	1428	41	709.74641150864
38	1471	42	711.82489512573
38	1514	43	711.76726617027
38	1557	44	711.6944710619
38	1588	45	711.01431637442
38	1619	46	709.87975019965
38	1674	47	708.57461400993
38	1729	48	707.15583495537
38	1784	49	706.07874143871
38	1839	50	701.14173199517
38	1906	51	696.03356438938
38	1961	52	694.44878704734
38	2016	53	695.25196913489
38	2083	54	699.58970994371
38	2150	55	705.22600210783
38	2205	56	710.87489291353
38	2260	57	720.30850688477
vector 273 RSUExampleScenario.node[55].veinsmobility posx ETV
vector 274 RSUExampleScenario.node[55].veinsmobility posy ETV
vector 275 RSUExampleScenario.node[54].veinsmobility acceleration ETV
vector 276 RSUExampleScenario.node[54].veinsmobility co2emission ETV
vector 277 RSUExampleScenario.node[55].veinsmobility speed ETV
vector 278 RSUExampleScenario.node[56].veinsmobility posx ETV
vector 279 RSUExampleScenario.node[56].veinsmobility posy ETV
vector 280 RSUExampleScenario.node[55].veinsmobility acceleration ETV
vector 281 RSUExampleScenario.node[55].veinsmobility co2emission ETV
vector 282 RSUExampleScenario.node[57].veinsmobility posx ETV
vector 283 RSUExampleScenario.node[57].veinsmobility posy ETV
vector 284 RSUExampleScenario.node[56].veinsmobility speed ETV
vector 285 RSUExampleScenario.node[56].veinsmobility acceleration ETV
vector 286 RSUExampleScenario.node[56].veinsmobility co2emission ETV
vector 287 RSUExampleScenario.node[57].veinsmobility speed ETV
vector 288 RSUExampleScenario.node[58].veinsmobility posx ETV
vector 289 RSUExampleScenario.node[58].veinsmobility posy ETV
vector 290 RSUExampleScenario.node[59].veinsmobility posx ETV
vector 291 RSUExampleScenario.node[59].veinsmobility posy ETV
vector 292 RSUExampleScenario.node[57].veinsmobility acceleration ETV
vector 293 RSUExampleScenario.node[57].veinsmobility co2emission ETV
28	134	7	2.5853781389637
28	165	8	3.9591700790269
28	208	9	6.1309111016907
28	251	10	6.0291321421851
28	294	11	2.5479414062884
28	337	12	1.8194078931412
28	368	13	1.6770614648973
28	399	14	3.3491822633934
28	430	15	0.973
28	461	16	1.2602654187958
28	492	17	0.973
28	523	18	0.973
28	554	19	4.0243784699827
28	573	20	0.973
28	592	21	2.5175786288207
28	611	22	1.7222001406428
28	642	23	6.283099275371
28	673	24	2.7992792511366
28	716	25	2.2735656934724
28	759	26	0.973
28	802	27	1.2725162265756
28	845	28	0.973
28	888	29	5.9734980991415
28	943	30	4.2954005319954
28	998	31	3.7129758180226
28	1041	32	0.973
28	1084	33	1.5198721521767
28	1139	34	0.973
28	1182	35	3.3532082874937
28	1225	36	0.973
28	1268	37	0.973
28	1311	38	4.8919262936214
28	1354	39	4.6920219971794
28	1397	40	3.2864558421445
28	1428	41	3.0298075832891
28	1471	42	0.973
28	1514	43	3.3778099663309
28	1557	44	1.7815382469946
28	1588	45	0.973
28	1619	46	0.973
28	1674	47	4.3151682914903
28	1729	48	4.2871817760769
28	1784	49	5.509983626929
28	1839	50	5.812358537193
28	1906	51	0.973
28	1961	52	0.973
28	2016	53	0.973
28	2083	54	4.4374888879029
28	2150	55	0.973
28	2205	56	7.2122895907966
28	2260	57	4.1432366165553
28	2315	58	0.973
28	2370	59	4.2911954076947
28	2425	60	1.6145199519125
28	2480	61	0.973
28	2547	62	2.9784924640136
28	2614	63	1.5385745542833
27	134	7	1.6951142302249
27	165	8	2.0367762609618
27	208	9	2.4715285003651
27	251	10	1.8865424470045
27	294	11	0.35965578423086
27	337	12	0.054660725616849
27	368	13	-0.0040860524866719
27	399	14	0.62818098375574
27	430	15	-0.82864982441533
27	461	16	-0.17134158615954
27	492	17	-2.9899888465603
27	523	18	-0.27857001151079
27	554	19	1.341448055556
27	573	20	-0.91044446130791
27	592	21	0.56941236911807
27	611	22	0.11671101350803
27	642	23	2.0188599040965
27	673	24	0.46342708063608
27	716	25	0.23223020215519
27	759	26	-0.26143673637416
27	802	27	-0.16802663833313
27	845	28	-3.6849562111543
27	888	29	2.2024986446835
27	943	30	1.1613199793495
27	998	31	0.81007614773698
27	1041	32	-0.49242001746316
27	1084	33	-0.061541884741745
27	1139	34	-0.27205727333203
27	1182	35	0.67912588336039
27	1225	36	-0.85876389513405
27	1268	37	-3.6505088029546
27	1311	38	1.8720458762022
27	1354	39	1.4338872503722
27	1397	40	0.70198592900679
27	1428	41	0.54313240689225
27	1471	42	-0.3176009199582
27	1514	43	0.65289501792286
27	1557	44	0.021912722592242
27	1588	45	-2.3957815108697
27	1619	46	-4.3610140568742
27	1674	47	2.0644908756716
27	1729	48	1.5605140247615
27	1784	49	1.7607695890358
27	1839	50	1.5734864871525
27	1906	51	-0.2717103093164
27	1961	52	-0.31674399187323
27	2016	53	-0.45226633385755
27	2083	54	1.0418512595585
27	2150	55	-3.9024632307262
27	2205	56	2.484339174442
27	2260	57	0.98136018337953
27	2315	58	-0.67717702595983
27	2370	59	0.99949173186906
27	2425	60	-0.045078567555175
27	2480	61	-0.82975013251416
27	2547	62	0.51509255059063
27	2614	63	-0.06557800322771
24	115	6	1.528189688758
24	134	7	3.2233039189829
24	165	8	5.2600801799446
24	208	9	7.7316086803097
24	251	10	9.6181511273142
24	294	11	9.9778069115451
24	337	12	10.032467637162
24	368	13	10.028381584675
24	399	14	10.656562568431
24	430	15	9.8279127440156
24	461	16	9.6565711578561
24	492	17	6.6665823112958
24	523	18	6.388012299785
24	554	19	7.7294603553409
24	573	20	6.819015894033
24	592	21	7.3884282631511
24	611	22	7.5051392766591
24	642	23	9.5239991807556
24	673	24	9.9874262613917
24	716	25	10.219656463547
24	759	26	9.9582197271727
24	802	27	9.7901930888396
24	845	28	6.1052368776852
24	888	29	8.3077355223687
24	943	30	9.4690555017183
24	998	31	10.279131649455
24	1041	32	9.7867116319921
24	1084	33	9.7251697472503
24	1139	34	9.4531124739183
24	1182	35	10.132238357279
24	1225	36	9.2734744621446
24	1268	37	5.6229656591901
24	1311	38	7.4950115353922
24	1354	39	8.9288987857645
24	1397	40	9.6308847147712
24	1428	41	10.174017121663
24	1471	42	9.8564162017053
24	1514	43	10.509311219628
24	1557	44	10.53122394222
24	1588	45	8.1354424313507
24	1619	46	3.7744283744765
24	1674	47	5.8389192501481
24	1729	48	7.3994332749096
24	1784	49	9.1602028639454
24	1839	50	10.733689351098
24	1906	51	10.461979041781
24	1961	52	10.145235049908
24	2016	53	9.6929687160507
24	2083	54	10.734819975609
24	2150	55	6.8323567448829
24	2205	56	9.3166959193249
24	2260	57	10.298056102704
24	2315	58	9.6208790767446
24	2370	59	10.620370808614
24	2425	60	10.575292241058
24	2480	61	9.7455421085443
24	2547	62	10.260634659135
24	2614	63	10.195056655907
16	96	5	222.74
16	115	6	221.69146574765
16	134	7	219.51257574263
16	165	8	217.08693317137
16	208	9	218.51734203751
16	251	10	219.05684416779
16	294	11	219.80124914159
16	337	12	226.8425654601
16	368	13	236.30179246045
16	399	14	247.53018703382
16	430	15	257.51252411357
16	461	16	265.66257348872
16	492	17	270.02883403765
16	523	18	275.12899950607
16	554	19	282.71022752193
16	573	20	289.43401389198
16	592	21	296.26547246223
16	611	22	297.96019127931
16	642	23	298.64707737805
16	673	24	299.36738658125
16	716	25	300.10444459916
16	759	26	300.82264738026
16	802	27	301.52873181066
16	845	28	301.96905128794
16	888	29	302.77931258884
16	943	30	303.81675663639
16	998	31	305.22846955534
16	1041	32	306.57255461195
16	1084	33	307.90818764395
16	1139	34	309.20645693934
16	1182	35	310.59799586254
16	1225	36	311.87159407572
16	1268	37	312.64383958582
16	1311	38	313.66235695265
16	1354	39	314.87122930836
16	1397	40	316.16041368314
16	1428	41	317.52156701876
16	1471	42	318.84022941434
16	1514	43	320.24624081088
16	1557	44	321.65518384939
16	1588	45	322.74360197074
16	1619	46	323.24857220134
16	1674	47	324.02344500761
16	1729	48	325.00379602073
16	1784	49	326.21722139031
16	1839	50	327.63897557636
16	1906	51	329.02473978198
16	1961	52	330.36854897274
16	2016	53	331.65245224183
16	2083	54	333.07435618721
16	2150	55	333.97935087123
16	2205	56	335.30379615993
16	2260	57	336.82514583258
16	2315	58	338.31902675906
16	2370	59	339.96810365282
16	2425	60	341.61018097702
16	2480	61	343.12341894187
16	2547	62	344.71663784511
16	2614	63	346.29967413121
15	96	5	744.3
15	115	6	743.13534143305
15	134	7	740.65341891265
15	165	8	735.88372143738
15	208	9	726.78066931301
15	251	10	718.26534613859
15	294	11	707.72693835989
15	337	12	700.22452180404
15	368	13	695.8071521207
15	399	14	694.79949680508
15	430	15	697.7050412935
15	461	16	703.54927054917
15	492	17	708.77719088958
15	523	18	712.10729273581
15	554	19	712.50053036236
15	573	20	713.60379035995
15	592	21	711.45367732418
15	611	22	704.31165961704
15	642	23	694.81230209005
15	673	24	684.85071651756
15	716	25	674.65750159726
15	759	26	664.72504699228
15	802	27	654.96018428659
15	845	28	648.87074362334
15	888	29	640.60363896564
15	943	30	631.1912705444
15	998	31	621.00987286625
15	1041	32	611.31621327664
15	1084	33	601.68351043161
15	1139	34	592.32027813968
15	1182	35	582.28437709247
15	1225	36	573.09907481431
15	1268	37	567.52957230582
15	1311	38	560.10140627244
15	1354	39	551.25030620264
15	1397	40	541.70620207956
15	1428	41	531.62400240184
15	1471	42	521.85653739131
15	1514	43	511.442069544
15	1557	44	501.00588672982
15	1588	45	492.94386421908
15	1619	46	489.20349892525
15	1674	47	483.41547931489
15	1729	48	476.08008907099
15	1784	49	467.00047940717
15	1839	50	456.36189067052
15	1906	51	445.99260488664
15	1961	52	435.93725673913
15	2016	53	426.33016784041
15	2083	54	415.69045849659
15	2150	55	408.91863651318
15	2205	56	399.69584137895
15	2260	57	389.50959856939
15	2315	58	380.00594268496
15	2370	59	369.51497312543
15	2425	60	359.06853288493
15	2480	61	349.4417328942
15	2547	62	339.3061163691
15	2614	63	329.23527882846
vector 294 RSUExampleScenario.node[60].veinsmobility posx ETV
vector 295 RSUExampleScenario.node[60].veinsmobility posy ETV
vector 296 RSUExampleScenario.node[58].veinsmobility speed ETV
vector 297 RSUExampleScenario.node[59].veinsmobility speed ETV
33	165	8	1.4486433211943
33	208	9	1.4802188296169
33	251	10	0.973
33	294	11	0.973
33	337	12	2.700619273892
33	368	13	2.7080824743377
33	399	14	5.893904740822
33	430	15	5.9491438643341
33	461	16	0.973
33	492	17	5.8307632653731
33	523	18	0.973
33	554	19	2.2838986820992
33	573	20	2.422536141639
33	592	21	0.973
33	611	22	3.2342210255479
33	642	23	1.6915844863581
33	673	24	1.3292642710327
33	716	25	0.973
33	759	26	1.311890550915
33	802	27	3.1239236920637
33	845	28	1.6042801635154
33	888	29	0.973
33	943	30	1.2760526610828
33	998	31	3.9969310563673
33	1041	32	0.973
33	1084	33	0.973
33	1139	34	0.973
33	1182	35	2.4424338556498
33	1225	36	3.0922800301652
33	1268	37	1.4275077941526
33	1311	38	4.9207183697343
33	1354	39	4.854403887647
33	1397	40	5.3629955828189
33	1428	41	0.973
33	1471	42	0.973
33	1514	43	0.973
33	1557	44	0.973
33	1588	45	2.8035873674895
33	1619	46	3.8458324136839
33	1674	47	5.8871017266803
33	1729	48	1.2297967361063
33	1784	49	0.973
33	1839	50	2.5819052314778
33	1906	51	2.1559741339044
33	1961	52	0.973
33	2016	53	2.6934346057892
33	2083	54	2.2422524690783
33	2150	55	0.973
33	2205	56	0.973
33	2260	57	1.7647350788678
33	2315	58	2.4090701116658
33	2370	59	0.973
33	2425	60	2.7613583579459
33	2480	61	2.3188139895338
33	2547	62	0.973
33	2614	63	0.973
33	2669	64	2.0980975039654
32	165	8	0.37277559034992
32	208	9	0.34741267236987
32	251	10	-0.48690214860253
32	294	11	-0.59839264652692
32	337	12	1.7215491539333
32	368	13	1.2189928638303
32	399	14	2.5418741665548
32	430	15	1.9623083375514
32	461	16	-0.60881051330361
32	492	17	1.6769004549272
32	523	18	-0.52672916923184
32	554	19	0.25183568503708
32	573	20	0.29181748251431
32	592	21	-0.34375028158538
32	611	22	0.59799943726976
32	642	23	-0.011906529753469
32	673	24	-0.15289721400477
32	716	25	-0.35110375473741
32	759	26	-0.15184087590314
32	802	27	0.56322183639277
32	845	28	-0.042838056641632
32	888	29	-0.71271495465189
32	943	30	-0.16174050243571
32	998	31	0.9126148592215
32	1041	32	-3.1561275268878
32	1084	33	-3.0332886539371
32	1139	34	-3.6152357567028
32	1182	35	1.9698545441963
32	1225	36	1.7209996661857
32	1268	37	0.094676253735088
32	1311	38	2.1952735026367
32	1354	39	1.6640909610782
32	1397	40	1.5663853979087
32	1428	41	-1.4694046989714
32	1471	42	-2.793461290834
32	1514	43	-2.3058583350942
32	1557	44	-0.23528149524222
32	1588	45	1.3971104046796
32	1619	46	1.6641843278194
32	1674	47	2.1833026328357
32	1729	48	-0.1634426448656
32	1784	49	-0.38119753890205
32	1839	50	0.51877510058694
32	1906	51	0.28375837064814
32	1961	52	-0.89984697711188
32	2016	53	0.57906924188137
32	2083	54	0.32560537178069
32	2150	55	-0.72629310977645
32	2205	56	-0.40038809282705
32	2260	57	0.14032826609909
32	2315	58	0.45305881777313
32	2370	59	-0.46615101981442
32	2425	60	0.61954903122969
32	2480	61	0.36422035337891
32	2547	62	-0.43667430328205
32	2614	63	-0.73874936210923
32	2669	64	0.31604864457622
29	134	7	2.0700068679173
29	165	8	2.4427824582672
29	208	9	2.790195130637
29	251	10	2.3032929820345
29	294	11	1.7049003355076
29	337	12	3.4264494894409
29	368	13	4.6454423532712
29	399	14	7.1873165198259
29	430	15	9.1496248573773
29	461	16	8.5408143440737
29	492	17	10.217714799001
29	523	18	9.690985629769
29	554	19	9.9428213148061
29	573	20	10.23463879732
29	592	21	9.890888515735
29	611	22	10.488887953005
29	642	23	10.476981423251
29	673	24	10.324084209247
29	716	25	9.9729804545092
29	759	26	9.821139578606
29	802	27	10.384361414999
29	845	28	10.341523358357
29	888	29	9.6288084037053
29	943	30	9.4670679012695
29	998	31	10.379682760491
29	1041	32	7.2235552336032
29	1084	33	4.1902665796661
29	1139	34	0.57503082296336
29	1182	35	2.5448853671596
29	1225	36	4.2658850333454
29	1268	37	4.3605612870805
29	1311	38	6.5558347897172
29	1354	39	8.2199257507953
29	1397	40	9.786311148704
29	1428	41	8.3169064497326
29	1471	42	5.5234451588987
29	1514	43	3.2175868238044
29	1557	44	2.9823053285622
29	1588	45	4.3794157332418
29	1619	46	6.0436000610612
29	1674	47	8.2269026938968
29	1729	48	8.0634600490312
29	1784	49	7.6822625101292
29	1839	50	8.2010376107161
29	1906	51	8.4847959813643
29	1961	52	7.5849490042524
29	2016	53	8.1640182461338
29	2083	54	8.4896236179144
29	2150	55	7.763330508138
29	2205	56	7.3629424153109
29	2260	57	7.50327068141
29	2315	58	7.9563294991832
29	2370	59	7.4901784793687
29	2425	60	8.1097275105984
29	2480	61	8.4739478639773
29	2547	62	8.0372735606953
29	2614	63	7.2985241985861
29	2669	64	7.6145728431623
21	115	6	141.5080861244
21	134	7	139.88377451513
21	165	8	137.96695000242
21	208	9	136.96243582112
21	251	10	138.86770657884
21	294	11	140.29532610046
21	337	12	142.98402330748
21	368	13	146.6292508
21	399	14	151.99171640045
21	430	15	156.64106742151
21	461	16	156.96243193385
21	492	17	156.42135997026
21	523	18	156.18487992539
21	554	19	155.94225457019
21	573	20	155.69250826631
21	592	21	155.45115017856
21	611	22	155.19519967069
21	642	23	154.93953970671
21	673	24	154.68761075022
21	716	25	154.44424944979
21	759	26	154.20459338002
21	802	27	153.95119353534
21	845	28	153.69883902764
21	888	29	153.46387623538
21	943	30	153.23286024509
21	998	31	152.97957456924
21	1041	32	152.80330491711
21	1084	33	152.70105376675
21	1139	34	152.68702182821
21	1182	35	152.9523795369
21	1225	36	155.71639367076
21	1268	37	160.08545505818
21	1311	38	166.68330376049
21	1354	39	174.95590796537
21	1397	40	184.80493595097
21	1428	41	193.10806260543
21	1471	42	198.61768123719
21	1514	43	201.79371054038
21	1557	44	204.73749718337
21	1588	45	209.05205343212
21	1619	46	215.00319998716
21	1674	47	223.51970141498
21	1729	48	229.65066822365
21	1784	49	236.17277484776
21	1839	50	243.55055322085
21	1906	51	251.360286935
21	1961	52	257.70263324514
21	2016	53	263.75532996046
21	2083	54	268.63679749974
21	2150	55	270.53710791975
21	2205	56	270.95324258757
21	2260	57	270.22838253605
21	2315	58	265.80690185706
21	2370	59	260.89521015942
21	2425	60	253.97533535671
21	2480	61	246.51727178484
21	2547	62	239.25025836146
21	2614	63	232.91879040013
21	2669	64	226.79001013301
20	115	6	521.72727272727
20	134	7	520.44763211801
20	165	8	518.93754841654
20	208	9	516.5492026523
20	251	10	515.86774147477
20	294	11	516.69322681341
20	337	12	518.81467448773
20	368	13	521.69084788732
20	399	14	526.47245108777
20	430	15	534.27186999779
20	461	16	542.74048245695
20	492	17	552.94085503675
20	523	18	562.62916606975
20	554	19	572.56924328413
20	573	20	582.80105744286
20	592	21	592.68921619101
20	611	22	603.17520933568
20	642	23	613.64929923667
20	673	24	623.97053412146
20	716	25	633.94076215198
20	759	26	643.75919121287
20	802	27	654.14068666762
20	845	28	664.47935588853
20	888	29	674.10550685564
20	943	30	683.56996195876
20	998	31	693.94678005026
20	1041	32	701.16834166853
20	1084	33	705.35745178446
20	1139	34	705.93232390576
20	1182	35	708.46259152045
20	1225	36	711.48186748138
20	1268	37	715.01667030985
20	1311	38	714.96952509536
20	1354	39	714.91041284267
20	1397	40	714.84003618538
20	1428	41	713.7810681302
20	1471	42	713.04888188716
20	1514	43	712.41693349248
20	1557	44	711.83119543223
20	1588	45	710.93285478052
20	1619	46	709.55912215765
20	1674	47	707.35951360946
20	1729	48	702.23657883011
20	1784	49	699.14267249985
20	1839	50	697.59918816218
20	1906	51	698.41411689756
20	1961	52	701.36165504479
20	2016	53	706.13190098032
20	2083	54	712.68416980722
20	2150	55	719.47332031444
20	2205	56	725.99803368865
20	2260	57	733.32338996906
20	2315	58	739.81833740012
20	2370	59	745.20087390435
20	2425	60	748.81962132762
20	2480	61	750.56646685249
20	2547	62	750.13684431677
20	2614	63	747.89773908577
20	2669	64	743.90590581625
vector 298 RSUExampleScenario.node[61].veinsmobility posx ETV
vector 299 RSUExampleScenario.node[61].veinsmobility posy ETV
vector 300 RSUExampleScenario.node[62].veinsmobility posx ETV
vector 301 RSUExampleScenario.node[62].veinsmobility posy ETV
vector 302 RSUExampleScenario.node[58].veinsmobility acceleration ETV
vector 303 RSUExampleScenario.node[58].veinsmobility co2emission ETV
vector 304 RSUExampleScenario.node[59].veinsmobility acceleration ETV
vector 305 RSUExampleScenario.node[59].veinsmobility co2emission ETV
vector 306 RSUExampleScenario.node[60].veinsmobility speed ETV
8	58	3	3.9251049697725
8	77	4	5.0402732003236
8	96	5	5.6340133233598
8	115	6	5.3119856704556
8	134	7	7.202988867645
8	165	8	5.9390656941548
8	208	9	0.973
8	251	10	0.973
8	294	11	0.973
8	337	12	0.973
8	368	13	2.4017909726648
8	399	14	4.0543444866893
8	430	15	6.0288795645718
8	461	16	5.2312528019653
8	492	17	6.7070571418764
8	523	18	3.979160322973
8	554	19	0.973
8	573	20	0.973
8	592	21	0.973
8	611	22	4.1227148774741
8	642	23	1.8588567642456
8	673	24	1.5141348972129
8	716	25	7.4809890829772
8	759	26	0.973
8	802	27	1.5362837929427
8	845	28	0.973
8	888	29	0.973
8	943	30	1.7043946007283
8	998	31	0.973
8	1041	32	4.5800972624728
8	1084	33	6.5027786285232
8	1139	34	7.1752443821773
8	1182	35	4.6098453326863
8	1225	36	2.4812685923252
8	1268	37	0.973
8	1311	38	0.973
8	1354	39	1.7887732178196
8	1397	40	0.973
8	1428	41	4.0393675673184
8	1471	42	4.1992468835446
8	1514	43	4.6709784506949
8	1557	44	8.7708509348395
8	1588	45	1.5766504604768
8	1619	46	0.973
8	1674	47	0.973
8	1729	48	1.8776761783483
8	1784	49	0.973
8	1839	50	2.9288062232076
8	1906	51	5.3043010323078
8	1961	52	6.9058454930807
8	2016	53	5.2644490241751
8	2083	54	4.1929379551984
8	2150	55	0.973
8	2205	56	0.973
8	2260	57	0.973
8	2315	58	0.973
8	2370	59	5.7000373983621
8	2425	60	8.3754963075702
8	2480	61	3.7424533668942
8	2547	62	0.973
8	2614	63	0.973
8	2669	64	2.1120040845568
8	2712	65	3.5257585370688
7	58	3	2.3097215975402
7	77	4	2.1753469938878
7	96	5	1.9198876491515
7	115	6	1.4688386279158
7	134	7	1.8430399890523
7	165	8	1.2403272181321
7	208	9	-4.258363768373
7	251	10	-4.3725450053462
7	294	11	-4.1584068516573
7	337	12	-0.13240468917049
7	368	13	2.0332066265866
7	399	14	2.3593932940857
7	430	15	2.5662959037116
7	461	16	1.6702538255369
7	492	17	1.8885980707826
7	523	18	0.76954951498899
7	554	19	-2.6367125348802
7	573	20	-1.1483306432281
7	592	21	-0.3544848159472
7	611	22	1.2047890587363
7	642	23	0.12145484769717
7	673	24	-0.03926903156098
7	716	25	2.1648731552424
7	759	26	-0.5596682870202
7	802	27	-0.069947301986016
7	845	28	-0.77851062405696
7	888	29	-2.7978559530806
7	943	30	0.13918528189808
7	998	31	-3.3566515855094
7	1041	32	2.266436697077
7	1084	33	2.475277706515
7	1139	34	2.1665640576975
7	1182	35	1.0161028264274
7	1225	36	0.23374311644584
7	1268	37	-0.32166606029496
7	1311	38	-2.2067160568173
7	1354	39	0.071834381745512
7	1397	40	-4.5
7	1428	41	1.6774529649643
7	1471	42	1.4128849284956
7	1514	43	1.3725404736586
7	1557	44	2.4702338451752
7	1588	45	-0.084604933214596
7	1619	46	-0.79779241897631
7	1674	47	-2.8462532031415
7	1729	48	0.16718479139515
7	1784	49	-4.4323948809511
7	1839	50	1.3040747776628
7	1906	51	2.2015653816517
7	1961	52	2.3002126050647
7	2016	53	1.346076967367
7	2083	54	0.84312986133155
7	2150	55	-0.85809951829724
7	2205	56	-0.25210776434918
7	2260	57	-1.0865535133724
7	2315	58	-3.0510134066106
7	2370	59	2.0253044708632
7	2425	60	2.5047667042818
7	2480	61	0.68588549617811
7	2547	62	-0.41314636061434
7	2614	63	-0.47810111669823
7	2669	64	0.1361825448228
7	2712	65	0.61997276998591
4	39	2	2.3290013018763
4	58	3	4.6387228994165
4	77	4	6.8140698933043
4	96	5	8.7339575424558
4	115	6	10.202796170372
4	134	7	12.045836159424
4	165	8	13.286163377556
4	208	9	9.027799609183
4	251	10	4.6552546038368
4	294	11	0.49684775217955
4	337	12	0.36444306300906
4	368	13	2.3976496895957
4	399	14	4.7570429836814
4	430	15	7.323338887393
4	461	16	8.9935927129299
4	492	17	10.882190783713
4	523	18	11.651740298702
4	554	19	9.0150277638214
4	573	20	7.8666971205933
4	592	21	7.5122123046461
4	611	22	8.7170013633823
4	642	23	8.8384562110795
4	673	24	8.7991871795185
4	716	25	10.964060334761
4	759	26	10.404392047741
4	802	27	10.334444745755
4	845	28	9.5559341216978
4	888	29	6.7580781686172
4	943	30	6.8972634505153
4	998	31	3.5406118650058
4	1041	32	5.8070485620828
4	1084	33	8.2823262685979
4	1139	34	10.448890326295
4	1182	35	11.464993152723
4	1225	36	11.698736269169
4	1268	37	11.377070208874
4	1311	38	9.1703541520564
4	1354	39	9.2421885338019
4	1397	40	4.7421885338019
4	1428	41	6.4196414987662
4	1471	42	7.8325264272618
4	1514	43	9.2050669009204
4	1557	44	11.675300746096
4	1588	45	11.590695812881
4	1619	46	10.792903393905
4	1674	47	7.9466501907632
4	1729	48	8.1138349821584
4	1784	49	3.6814401012072
4	1839	50	4.98551487887
4	1906	51	7.1870802605217
4	1961	52	9.4872928655865
4	2016	53	10.833369832954
4	2083	54	11.676499694285
4	2150	55	10.818400175988
4	2205	56	10.566292411639
4	2260	57	9.4797388982663
4	2315	58	6.4287254916557
4	2370	59	8.4540299625189
4	2425	60	10.958796666801
4	2480	61	11.644682162979
4	2547	62	11.231535802364
4	2614	63	10.753434685666
4	2669	64	10.889617230489
4	2712	65	11.509590000475
1	20	1	142.29
1	39	2	144.62012726054
1	58	3	149.2653062809
1	77	4	156.08885991797
1	96	5	164.88821362078
1	115	6	175.156395726
1	134	7	187.2596269198
1	165	8	200.49763045898
1	208	9	209.39790589522
1	251	10	213.95838947554
1	294	11	214.44512247052
1	337	12	214.81550034671
1	368	13	217.4017018819
1	399	14	222.46139324143
1	430	15	228.04661791874
1	461	16	235.56754516524
1	492	17	245.39707928158
1	523	18	255.69954990537
1	554	19	265.08920844364
1	573	20	270.27842558984
1	592	21	276.6507038059
1	611	22	285.20205131965
1	642	23	293.94407694435
1	673	24	297.84922173893
1	716	25	298.63996735816
1	759	26	299.39034880274
1	802	27	300.1356855357
1	845	28	300.82487483361
1	888	29	301.31227827203
1	943	30	301.80971997626
1	998	31	302.0650745836
1	1041	32	302.65137426372
1	1084	33	303.55759696553
1	1139	34	304.92821497164
1	1182	35	306.50279145353
1	1225	36	308.10946969152
1	1268	37	309.67197103322
1	1311	38	310.93140693397
1	1354	39	312.20070840782
1	1397	40	312.85198996015
1	1428	41	313.7219603795
1	1471	42	314.78239626308
1	1514	43	316.01566248067
1	1557	44	317.57766835946
1	1588	45	319.12835518053
1	1619	46	320.57230758203
1	1674	47	321.63546771679
1	1729	48	322.72099503787
1	1784	49	323.21352462709
1	1839	50	323.87566969631
1	1906	51	324.82788605572
1	1961	52	326.08468044145
1	2016	53	327.51963802269
1	2083	54	329.06627420487
1	2150	55	330.49924894762
1	2205	56	331.89883020769
1	2260	57	333.15448965715
1	2315	58	334.00602048498
1	2370	59	335.20713485556
1	2425	60	336.82505573975
1	2480	61	338.6331824649
1	2547	62	340.37715793496
1	2614	63	342.0468963074
1	2669	64	343.73778040931
1	2712	65	345.52493071399
0	20	1	712.04755287009
0	39	2	712.00930339267
0	58	3	711.94797024369
0	77	4	711.85787467794
0	96	5	714.98235198992
0	115	6	714.90898024867
0	134	7	714.52739835576
0	165	8	712.67482019585
0	208	9	710.85141709174
0	251	10	709.7775625378
0	294	11	709.66295178787
0	337	12	709.58778288119
0	368	13	709.19288384438
0	399	14	708.20064926468
0	430	15	703.28543924161
0	461	16	699.29735731826
0	492	17	697.79186914243
0	523	18	700.37696623954
0	554	19	702.9988401059
0	573	20	709.13357285713
0	592	21	712.13818858669
0	611	22	712.95654902536
0	642	23	713.07524036975
0	673	24	705.84632357457
0	716	25	694.91063079566
0	759	26	684.53315826162
0	802	27	674.22545205337
0	845	28	664.69424221142
0	888	29	657.95364936795
0	943	30	651.07423135974
0	998	31	647.54278019814
0	1041	32	641.76593926472
0	1084	33	633.53304332531
0	1139	34	623.17533531992
0	1182	35	611.81935130825
0	1225	36	600.2318466094
0	1268	37	588.96294957034
0	1311	38	579.87978713449
0	1354	39	570.7254733181
0	1397	40	566.02837350716
0	1428	41	559.66500296398
0	1471	42	551.90072241041
0	1514	43	542.77838879705
0	1557	44	531.20845412798
0	1588	45	519.72236085806
0	1619	46	509.02686017053
0	1674	47	501.1519261072
0	1729	48	493.11131604493
0	1784	49	489.46309983317
0	1839	50	484.52119508643
0	1906	51	477.39631991472
0	1961	52	467.9922462397
0	2016	53	457.25486019145
0	2083	54	445.68181442239
0	2150	55	434.95926539977
0	2205	56	424.48659046372
0	2260	57	415.09084216408
0	2315	58	408.71907525622
0	2370	59	400.35016405466
0	2425	60	389.510171715
0	2480	61	378.00737126634
0	2547	62	366.9126832999
0	2614	63	356.29027114681
0	2669	64	345.53333573102
0	2712	65	334.16398144823
93	592	21	2.9572775987046
93	611	22	5.4475378523348
93	642	23	6.1741223065018
93	673	24	6.0427391267003
93	716	25	9.3388311865557
93	759	26	10.100816303948
93	802	27	0.973
93	845	28	0.973
93	888	29	0.973
93	943	30	4.1690557580622
93	998	31	6.1317906280747
93	1041	32	6.7451697301008
93	1084	33	6.0227701667022
93	1139	34	4.7936926625837
93	1182	35	3.1834031712054
93	1225	36	2.6095235391314
93	1268	37	1.9979130551399
93	1311	38	0.973
93	1354	39	2.1822468891072
93	1397	40	0.973
93	1428	41	0.973
93	1471	42	0.973
93	1514	43	0.973
93	1557	44	3.4652122876591
93	1588	45	0.973
93	1619	46	4.8195582089121
93	1674	47	4.7414340928644
93	1729	48	5.6086502511179
93	1784	49	0.973
93	1839	50	3.6897298229491
93	1906	51	0.973
93	1961	52	2.3061984033727
93	2016	53	7.4650115281213
93	2083	54	2.9363038200333
93	2150	55	0.973
93	2205	56	5.4138840152895
93	2260	57	0.973
93	2315	58	0.973
93	2370	59	5.0695255379623
93	2425	60	6.5540262786954
93	2480	61	6.7048303808848
93	2547	62	2.7382738437126
93	2614	63	3.5057114508134
93	2669	64	1.7113884869007
93	2712	65	2.8066521362489
92	592	21	1.7152554555098
92	611	22	2.5400754326023
92	642	23	2.1827345938887
92	673	24	1.7201388832182
92	716	25	2.3980328541948
92	759	26	2.1960553289679
92	802	27	-4.1075742251423
92	845	28	-3.8706133970525
92	888	29	-0.33233161270618
92	943	30	1.348872832139
92	998	31	1.8613727044314
92	1041	32	1.7501843167003
92	1084	33	1.3055394293508
92	1139	34	0.83311615555513
92	1182	35	0.33131206019316
92	1225	36	0.1564605214633
92	1268	37	-0.020386961358598
92	1311	38	-0.39973078451585
92	1354	39	0.044939980143681
92	1397	40	-2.47233420152
92	1428	41	-1.8222112304257
92	1471	42	-1.1250297482487
92	1514	43	-3.1414272085844
92	1557	44	1.2582444006394
92	1588	45	-0.81244124923833
92	1619	46	1.7997850054642
92	1674	47	1.4341913419077
92	1729	48	1.5231498675887
92	1784	49	-2.6895309318089
92	1839	50	0.97820805151583
92	1906	51	-1.3520849519821
92	1961	52	0.40341439099826
92	2016	53	2.3339567731367
92	2083	54	0.4636684032028
92	2150	55	-2.6200236161981
92	2205	56	1.6062235430303
92	2260	57	-0.93872242816796
92	2315	58	-4.5
92	2370	59	2.2928356418386
92	2425	60	2.317860931973
92	2480	61	1.9098876064643
92	2547	62	0.35913456275273
92	2614	63	0.59466123704333
92	2669	64	-0.039073804276995
92	2712	65	0.33016134984791
89	573	20	2.2737992957234
89	592	21	3.9890547512332
89	611	22	6.5291301838355
89	642	23	8.7118647777243
89	673	24	10.432003660942
89	716	25	12.830036515137
89	759	26	15.026091844105
89	802	27	10.918517618963
89	845	28	7.0479042219103
89	888	29	6.7155726092042
89	943	30	8.0644454413432
89	998	31	9.9258181457746
89	1041	32	11.676002462475
89	1084	33	12.981541891826
89	1139	34	13.814658047381
89	1182	35	14.145970107574
89	1225	36	14.302430629037
89	1268	37	14.282043667679
89	1311	38	13.882312883163
89	1354	39	13.927252863307
89	1397	40	11.454918661786
89	1428	41	9.6327074313607
89	1471	42	8.507677683112
89	1514	43	5.3662504745277
89	1557	44	6.6244948751671
89	1588	45	5.8120536259288
89	1619	46	7.611838631393
89	1674	47	9.0460299733007
89	1729	48	10.569179840889
89	1784	49	7.8796489090805
89	1839	50	8.8578569605963
89	1906	51	7.5057720086142
89	1961	52	7.9091863996124
89	2016	53	10.243143172749
89	2083	54	10.706811575952
89	2150	55	8.0867879597539
89	2205	56	9.6930115027842
89	2260	57	8.7542890746162
89	2315	58	4.2542890746162
89	2370	59	6.5471247164548
89	2425	60	8.8649856484278
89	2480	61	10.774873254892
89	2547	62	11.134007817645
89	2614	63	11.728669054688
89	2669	64	11.689595250411
89	2712	65	12.019756600259
84	554	19	235.60379799021
84	573	20	233.33615043182
84	592	21	229.35788802145
84	611	22	222.84642232278
84	642	23	214.15812739308
84	673	24	203.75434739574
84	716	25	190.95902239398
84	759	26	175.97358346519
84	802	27	165.08460576764
84	845	28	158.61425858686
84	888	29	157.04994761735
84	943	30	156.50237772959
84	998	31	156.2601672868
84	1041	32	155.97524873551
84	1084	33	155.65847232841
84	1139	34	155.32136616814
84	1182	35	154.97617531
84	1225	36	154.62716649232
84	1268	37	154.27865515855
84	1311	38	153.93989808069
84	1354	39	153.6000443746
84	1397	40	153.32052072421
84	1428	41	153.08546278763
84	1471	42	152.87785789819
84	1514	43	152.74691031438
84	1557	44	153.67567252522
84	1588	45	158.88881325259
84	1619	46	166.54943333336
84	1674	47	175.65343595619
84	1729	48	186.27847887986
84	1784	49	194.14503398663
84	1839	50	202.93430849917
84	1906	51	210.32517023394
84	1961	52	218.42047178029
84	2016	53	227.34296544713
84	2083	54	236.30053281311
84	2150	55	243.57654596286
84	2205	56	252.43013702576
84	2260	57	259.70067336119
84	2315	58	262.69471832356
84	2370	59	266.89828116697
84	2425	60	269.99635442538
84	2480	61	270.96253881991
84	2547	62	267.73461301856
84	2614	63	260.0752333382
84	2669	64	250.01186544052
84	2712	65	239.188286415
83	554	19	538.86694150992
83	573	20	538.69615756385
83	592	21	538.39654162466
83	611	22	537.90614186981
83	642	23	537.25179799382
83	673	24	536.46825533287
83	716	25	535.5045976044
83	759	26	534.37599524095
83	802	27	533.55591075604
83	845	28	535.17629576284
83	888	29	541.57689365095
83	943	30	549.62165213294
83	998	31	559.54473087096
83	1041	32	571.21751089562
83	1084	33	584.19547003628
83	1139	34	598.00631540234
83	1182	35	612.14838139041
83	1225	36	626.4468647187
83	1268	37	640.72496671219
83	1311	38	654.60344824211
83	1354	39	668.52685734926
83	1397	40	679.97861458974
83	1428	41	689.60866350842
83	1471	42	698.11399317367
83	1514	43	703.47876262689
83	1557	44	709.90226103404
83	1588	45	715.02522096585
83	1619	46	714.97048167231
83	1674	47	714.90542862611
83	1729	48	714.65260456085
83	1784	49	713.64873820021
83	1839	50	712.18998374478
83	1906	51	710.63307466921
83	1961	52	709.06467251071
83	2016	53	703.78923775679
83	2083	54	699.11002007343
83	2150	55	697.6019004483
83	2205	56	698.76976687925
83	2260	57	702.34386466914
83	2315	58	705.1220970865
83	2370	59	709.88896228428
83	2425	60	717.49105209062
83	2480	61	727.05315605956
83	2547	62	737.23566270799
83	2614	63	745.69285999708
83	2669	64	749.90966374073
83	2712	65	750.13165801204
vector 307 RSUExampleScenario.node[63].veinsmobility posx ETV
vector 308 RSUExampleScenario.node[63].veinsmobility posy ETV
vector 309 RSUExampleScenario.node[60].veinsmobility acceleration ETV
vector 310 RSUExampleScenario.node[60].veinsmobility co2emission ETV
vector 311 RSUExampleScenario.node[61].veinsmobility speed ETV
vector 312 RSUExampleScenario.node[62].veinsmobility speed ETV
vector 313 RSUExampleScenario.node[61].veinsmobility acceleration ETV
vector 314 RSUExampleScenario.node[61].veinsmobility co2emission ETV
vector 315 RSUExampleScenario.node[62].veinsmobility acceleration ETV
vector 316 RSUExampleScenario.node[62].veinsmobility co2emission ETV
vector 317 RSUExampleScenario.node[63].veinsmobility speed ETV
vector 318 RSUExampleScenario.node[64].veinsmobility posx ETV
vector 319 RSUExampleScenario.node[64].veinsmobility posy ETV
vector 320 RSUExampleScenario.node[65].veinsmobility posx ETV
vector 321 RSUExampleScenario.node[65].veinsmobility posy ETV
vector 322 RSUExampleScenario.node[63].veinsmobility acceleration ETV
vector 323 RSUExampleScenario.node[63].veinsmobility co2emission ETV
118	759	26	3.0656326287067
118	802	27	4.6634884311038
118	845	28	4.6847507661156
118	888	29	6.4592297232028
118	943	30	8.767317685492
118	998	31	7.8781258967769
118	1041	32	7.0795027040576
118	1084	33	4.7409463462809
118	1139	34	4.1243980134707
118	1182	35	0.98722919388291
118	1225	36	0.973
118	1268	37	0.973
118	1311	38	0.973
118	1354	39	0.973
118	1397	40	4.6611959021211
118	1428	41	6.4040257330445
118	1471	42	0.973
118	1514	43	0.973
118	1557	44	0.973
118	1588	45	1.8182161069381
118	1619	46	1.6002351022983
118	1674	47	0.973
118	1729	48	2.4324218101281
118	1784	49	3.9441095917055
118	1839	50	5.3834711066038
118	1906	51	5.9466252239935
118	1961	52	4.9843108135662
118	2016	53	8.4197787345825
118	2083	54	6.6101160973794
118	2150	55	10.393277218635
118	2205	56	0.973
118	2260	57	0.973
118	2315	58	1.2562544096409
118	2370	59	6.5987326058597
118	2425	60	8.8316345533272
118	2480	61	9.4920660467461
118	2547	62	10.023880099646
118	2614	63	3.0022874569815
118	2669	64	1.4590919635383
118	2712	65	2.6540391254036
118	2767	66	1.6112308447759
118	2822	67	3.5191420136321
118	2877	68	1.7270772878468
117	759	26	2.1050269616535
117	802	27	2.3162660283735
117	845	28	1.7380377209745
117	888	29	2.0678937249817
117	943	30	2.3872540553333
117	998	31	1.7640195989516
117	1041	32	1.3486098427093
117	1084	33	0.6581892490983
117	1139	34	0.46767832865007
117	1182	35	-0.32943166776095
117	1225	36	-0.50918422231916
117	1268	37	-2.4042196609397
117	1311	38	-3.198093131658
117	1354	39	-4.5
117	1397	40	1.8385974508477
117	1428	41	2.1313489146531
117	1471	42	-3.7384392055884
117	1514	43	-4.0684947990259
117	1557	44	-0.99779015294954
117	1588	45	1.3767635645048
117	1619	46	0.61778947887707
117	1674	47	-2.0012020649901
117	1729	48	2.0060046461876
117	1784	49	2.2664201286854
117	1839	50	2.2968007840216
117	1906	51	1.9892747174017
117	1961	52	1.312135837879
117	2016	53	2.1637843629112
117	2083	54	1.3698618403403
117	2150	55	2.1103108189128
117	2205	56	-4.5
117	2260	57	-4.5
117	2315	58	-0.12980100084096
117	2370	59	2.2633218863746
117	2425	60	2.5030105410377
117	2480	61	2.2347559386166
117	2547	62	2.0300356009742
117	2614	63	0.18887603174406
117	2669	64	-0.20557192040142
117	2712	65	0.10285359083209
117	2767	66	-0.16455253008753
117	2822	67	0.31956054943148
117	2877	68	-0.13820678978227
114	716	25	1.407928625471
114	759	26	3.5129555871245
114	802	27	5.829221615498
114	845	28	7.5672593364725
114	888	29	9.6351530614542
114	943	30	12.022407116788
114	998	31	13.786426715739
114	1041	32	15.135036558448
114	1084	33	15.793225807547
114	1139	34	16.260904136197
114	1182	35	15.931472468436
114	1225	36	15.422288246117
114	1268	37	13.018068585177
114	1311	38	9.8199754535189
114	1354	39	5.3199754535189
114	1397	40	7.1585729043667
114	1428	41	9.2899218190197
114	1471	42	5.5514826134314
114	1514	43	1.4829878144055
114	1557	44	0.48519766145599
114	1588	45	1.8619612259608
114	1619	46	2.4797507048379
114	1674	47	0.47854863984781
114	1729	48	2.4845532860355
114	1784	49	4.7509734147209
114	1839	50	7.0477741987425
114	1906	51	9.0370489161442
114	1961	52	10.349184754023
114	2016	53	12.512969116934
114	2083	54	13.882830957275
114	2150	55	15.993141776188
114	2205	56	11.493141776188
114	2260	57	6.9931417761876
114	2315	58	6.8633407753466
114	2370	59	9.1266626617212
114	2425	60	11.629673202759
114	2480	61	13.864429141375
114	2547	62	15.89446474235
114	2614	63	16.083340774094
114	2669	64	15.877768853692
114	2712	65	15.980622444524
114	2767	66	15.816069914437
114	2822	67	16.135630463868
114	2877	68	15.997423674086
106	673	24	149.60471035818
106	716	25	149.63913845292
106	759	26	149.72504079597
106	802	27	149.86758281864
106	845	28	150.05262509752
106	888	29	150.28823360525
106	943	30	150.58221766364
106	998	31	150.91933731339
106	1041	32	151.28943453502
106	1084	33	151.67562646587
106	1139	34	152.07325454022
106	1182	35	152.46282701824
106	1225	36	152.83994840867
106	1268	37	153.15827938829
106	1311	38	153.51764852663
106	1354	39	153.9133211583
106	1397	40	152.94405046391
106	1428	41	147.25316557082
106	1471	42	142.9972091813
106	1514	43	141.83352496329
106	1557	44	141.45279569785
106	1588	45	139.99173521432
106	1619	46	138.04590212535
106	1674	47	137.67039027399
106	1729	48	135.71569835401
106	1784	49	131.97581407417
106	1839	50	126.43948010085
106	1906	51	119.34048408846
106	1961	52	111.21074815564
106	2016	53	101.38126524718
106	2083	54	90.475696126022
106	2150	55	77.912385829913
106	2205	56	68.884021770363
106	2260	57	64.26749928049
106	2315	58	67.121267364948
106	2370	59	72.499469300038
106	2425	60	79.35265684973
106	2480	61	87.522751702672
106	2547	62	96.889115312566
106	2614	63	106.36678066298
106	2669	64	115.72330564248
106	2712	65	125.14044066113
106	2767	66	134.46060740468
106	2822	67	143.96908626504
106	2877	68	153.39612198986
105	673	24	701.04141408685
105	716	25	699.63387584047
105	759	26	696.12189429733
105	802	27	690.29428896138
105	845	28	682.72912781352
105	888	29	673.09664630958
105	943	30	661.07757266884
105	998	31	647.29496854228
105	1041	32	632.16412850466
105	1084	33	616.37528171535
105	1139	34	600.11888627146
105	1182	35	584.19183115318
105	1225	36	568.77381907473
105	1268	37	555.75936003458
105	1311	38	545.948008488
105	1354	39	540.64265151129
105	1397	40	533.66910039294
105	1428	41	526.45461521028
105	1471	42	522.90041113551
105	1514	43	521.98365503206
105	1557	44	521.68371465952
105	1588	45	520.53268408347
105	1619	46	518.99974728412
105	1674	47	518.70391721585
105	1729	48	517.16324426016
105	1784	49	514.21519560306
105	1839	50	509.85433269084
105	1906	51	504.26259119303
105	1961	52	497.85895584762
105	2016	53	490.11646277036
105	2083	54	481.52635745044
105	2150	55	471.63048155333
105	2205	56	464.51901425836
105	2260	57	459.47616750964
105	2315	58	453.44519672631
105	2370	59	446.0713590581
105	2425	60	436.67522757938
105	2480	61	425.47353714333
105	2547	62	412.63169043799
105	2614	63	399.63724236574
105	2669	64	386.80888501322
105	2712	65	373.89742765904
105	2767	66	361.11891963033
105	2822	67	348.08222438643
105	2877	68	335.15719256981
vector 324 RSUExampleScenario.node[66].veinsmobility posx ETV
vector 325 RSUExampleScenario.node[66].veinsmobility posy ETV
vector 326 RSUExampleScenario.node[67].veinsmobility posx ETV
vector 327 RSUExampleScenario.node[67].veinsmobility posy ETV
vector 328 RSUExampleScenario.node[64].veinsmobility speed ETV
vector 329 RSUExampleScenario.node[65].veinsmobility speed ETV
vector 330 RSUExampleScenario.node[68].veinsmobility posx ETV
vector 331 RSUExampleScenario.node[68].veinsmobility posy ETV
vector 332 RSUExampleScenario.node[64].veinsmobility acceleration ETV
vector 333 RSUExampleScenario.node[64].veinsmobility co2emission ETV
vector 334 RSUExampleScenario.node[65].veinsmobility acceleration ETV
vector 335 RSUExampleScenario.node[65].veinsmobility co2emission ETV
vector 336 RSUExampleScenario.node[66].veinsmobility speed ETV
vector 337 RSUExampleScenario.node[67].veinsmobility speed ETV
vector 338 RSUExampleScenario.node[69].veinsmobility posx ETV
vector 339 RSUExampleScenario.node[69].veinsmobility posy ETV
vector 340 RSUExampleScenario.node[66].veinsmobility acceleration ETV
vector 341 RSUExampleScenario.node[66].veinsmobility co2emission ETV
vector 342 RSUExampleScenario.node[67].veinsmobility acceleration ETV
vector 343 RSUExampleScenario.node[67].veinsmobility co2emission ETV
vector 344 RSUExampleScenario.node[68].veinsmobility speed ETV
vector 345 RSUExampleScenario.node[68].veinsmobility acceleration ETV
vector 346 RSUExampleScenario.node[68].veinsmobility co2emission ETV
vector 347 RSUExampleScenario.node[69].veinsmobility speed ETV
vector 348 RSUExampleScenario.node[70].veinsmobility posx ETV
vector 349 RSUExampleScenario.node[70].veinsmobility posy ETV
vector 350 RSUExampleScenario.node[69].veinsmobility acceleration ETV
vector 351 RSUExampleScenario.node[69].veinsmobility co2emission ETV
vector 352 RSUExampleScenario.node[71].veinsmobility posx ETV
vector 353 RSUExampleScenario.node[71].veinsmobility posy ETV
vector 354 RSUExampleScenario.node[72].veinsmobility posx ETV
vector 355 RSUExampleScenario.node[72].veinsmobility posy ETV
vector 356 RSUExampleScenario.node[70].veinsmobility speed ETV
vector 357 RSUExampleScenario.node[70].veinsmobility acceleration ETV
vector 358 RSUExampleScenario.node[70].veinsmobility co2emission ETV
vector 359 RSUExampleScenario.node[71].veinsmobility speed ETV
vector 360 RSUExampleScenario.node[72].veinsmobility speed ETV
238	1839	50	2.265382760923
238	1906	51	4.8369955263781
238	1961	52	5.62951475518
238	2016	53	5.8676552496924
238	2083	54	4.2627594513266
238	2150	55	1.3230257556672
238	2205	56	0.973
238	2260	57	0.973
238	2315	58	0.973
238	2370	59	0.973
238	2425	60	2.2732564100647
238	2480	61	2.6180850711339
238	2547	62	3.6822652595854
238	2614	63	5.4983053744098
238	2669	64	7.3280160252594
238	2712	65	5.9449560562408
238	2767	66	0.973
238	2822	67	0.973
238	2877	68	0.973
238	2932	69	5.5873483537179
238	2975	70	8.2365751619615
238	3006	71	2.2400711592289
238	3037	72	4.6404033378348
238	3056	73	0.973
238	3075	74	0.973
238	3094	75	0.973
237	1839	50	1.4495681964792
237	1906	51	2.5998919781065
237	1961	52	2.2094674084336
237	2016	53	1.8335435747402
237	2083	54	0.99824138232431
237	2150	55	-0.15639159647771
237	2205	56	-4.2695849783602
237	2260	57	-3.2811745658284
237	2315	58	-1.8877365779058
237	2370	59	-0.92396161963166
237	2425	60	2.0865767250769
237	2480	61	1.5193416469659
237	2547	62	1.7668876129901
237	2614	63	2.1811296718894
237	2669	64	2.3588576273527
237	2712	65	1.5035176981164
237	2767	66	-0.53147192315664
237	2822	67	-1.4537889293225
237	2877	68	-3.6719139608205
237	2932	69	2.1254086442757
237	2975	70	2.5779598564608
237	3006	71	0.19515205637478
237	3037	72	1.0015247793635
237	3056	73	-0.47517945689615
237	3075	74	-0.49015016022604
237	3094	75	-1.2150658749714
234	1784	49	1.4507581710583
234	1839	50	2.9003263675375
234	1906	51	5.500218345644
234	1961	52	7.7096857540775
234	2016	53	9.5432293288177
234	2083	54	10.541470711142
234	2150	55	10.385079114664
234	2205	56	6.1154941363041
234	2260	57	2.8343195704757
234	2315	58	0.94658299256991
234	2370	59	0.022621372938249
234	2425	60	2.1091980980151
234	2480	61	3.628539744981
234	2547	62	5.3954273579711
234	2614	63	7.5765570298605
234	2669	64	9.9354146572132
234	2712	65	11.43893235533
234	2767	66	10.907460432173
234	2822	67	9.4536715028505
234	2877	68	5.7817575420299
234	2932	69	7.9071661863057
234	2975	70	10.485126042766
234	3006	71	10.680278099141
234	3037	72	11.681802878505
234	3056	73	11.206623421609
234	3075	74	10.716473261383
234	3094	75	9.5014073864112
221	1729	48	315.61231475617
221	1784	49	315.80640764005
221	1839	50	316.19443420442
221	1906	51	316.93029305529
221	1961	52	317.96175037989
221	2016	53	319.23851237844
221	2083	54	320.64882630354
221	2150	55	322.03821703373
221	2205	56	322.85639191422
221	2260	57	323.23558761356
221	2315	58	323.36222830842
221	2370	59	323.36525475873
221	2425	60	324.85684410683
221	2480	61	326.42189557735
221	2547	62	325.70005642005
221	2614	63	324.68641001565
221	2669	64	323.35717863735
221	2712	65	321.8267958254
221	2767	66	320.3675171577
221	2822	67	319.10273685056
221	2877	68	318.32921165692
221	2932	69	317.26253683003
221	2975	70	315.84116457872
221	3006	71	314.3743591048
221	3037	72	312.77000646075
221	3056	73	311.23091389908
221	3075	74	309.75913746264
221	3094	75	308.45423545213
220	1729	48	545.7660259658
220	1784	49	544.32836045081
220	1839	50	541.45420865626
220	1906	51	536.00362812659
220	1961	52	528.36351996719
220	2016	53	518.90641541224
220	2083	54	508.46007830315
220	2150	55	498.16872140342
220	2205	56	492.10841776201
220	2260	57	489.29967707303
220	2315	58	488.36163670721
220	2370	59	488.33921948536
220	2425	60	486.96025318708
220	2480	61	489.59903394767
220	2547	62	494.94662344433
220	2614	63	502.45600390774
220	2669	64	512.30332749137
220	2712	65	523.64083802721
220	2767	66	534.4515888672
220	2822	67	543.82144061005
220	2877	68	549.55193494398
220	2932	69	557.38586877008
220	2975	70	567.77250205479
220	3006	71	578.35123208266
220	3037	72	589.9219643935
220	3056	73	601.02203525315
220	3075	74	611.6366162997
220	3094	75	621.04768431615
351	3056	73	4.1722154376585
351	3075	74	4.6427316225454
351	3094	75	5.75418647734
350	3056	73	2.5611609236337
350	3075	74	2.0061168105574
350	3094	75	2.0108760105912
347	3037	72	2.0269472099841
347	3056	73	4.5881081336178
347	3075	74	6.5942249441752
347	3094	75	8.6051009547664
339	3006	71	236.7911704465
339	3037	72	238.90164207663
339	3056	73	243.71336023418
339	3075	74	250.76054935888
339	3094	75	259.248286892
338	3006	71	695.68238015402
338	3037	72	695.14429363721
338	3056	73	694.40044811742
338	3075	74	695.1372307171
338	3094	75	698.55805533558
vector 361 RSUExampleScenario.node[73].veinsmobility posx ETV
vector 362 RSUExampleScenario.node[73].veinsmobility posy ETV
vector 363 RSUExampleScenario.node[71].veinsmobility acceleration ETV
vector 364 RSUExampleScenario.node[71].veinsmobility co2emission ETV
vector 365 RSUExampleScenario.node[72].veinsmobility acceleration ETV
vector 366 RSUExampleScenario.node[72].veinsmobility co2emission ETV
256	2083	54	3.0826014318
256	2150	55	3.3353513021788
256	2205	56	6.2495903294673
256	2260	57	6.8229318006905
256	2315	58	5.659722998209
256	2370	59	9.4465903460796
256	2425	60	3.5138548813018
256	2480	61	3.1060430180966
256	2547	62	3.8486594947621
256	2614	63	0.973
256	2669	64	2.5499361869365
256	2712	65	2.0292158483774
256	2767	66	0.973
256	2822	67	0.973
256	2877	68	0.973
256	2932	69	4.6456287971589
256	2975	70	1.6613407334461
256	3006	71	7.0363614103239
256	3037	72	7.3656994523452
256	3056	73	7.4922458834747
256	3075	74	0.973
256	3094	75	0.973
256	3137	76	5.1366122369923
255	2083	54	1.8714733079541
255	2150	55	1.4893535541371
255	2205	56	2.4742654358735
255	2260	57	2.1250829510856
255	2315	58	1.4014440429164
255	2370	59	2.2556562131969
255	2425	60	0.43008892047895
255	2480	61	0.29497394256759
255	2547	62	0.47811054184567
255	2614	63	-0.76891189091839
255	2669	64	0.14085596418008
255	2712	65	-0.010349447377745
255	2767	66	-3.718130211113
255	2822	67	-3.9577536062734
[...]
309	3037	72	-3.0200382998889
309	3056	73	-2.8839606558671
309	3075	74	-1.7720667772377
309	3094	75	-0.77084540668875
309	3137	76	1.3305777108064
309	3180	77	1.5166239265585
309	3223	78	1.6933411045
309	3266	79	1.4538254259154
309	3309	80	1.9067612368507
309	3364	81	0.45177977359854
309	3419	82	-1.1379036813742
310	2767	66	2.9849335132592
310	2822	67	3.1870008448993
310	2877	68	3.7703094747465
310	2932	69	4.6679226805552
310	2975	70	7.1508699977116
310	3006	71	4.9489020447397
310	3037	72	0.973
310	3056	73	0.973
310	3075	74	0.973
310	3094	75	0.973
310	3137	76	2.7171640364471
310	3180	77	3.5500696387565
310	3223	78	4.5932368472016
310	3266	79	4.764811529285
310	3309	80	6.767924935227
310	3364	81	3.029999009035
310	3419	82	0.973
311	2767	66	1.8431930978317
311	2822	67	3.4560997825349
311	2877	68	5.4067797170719
311	2932	69	7.5072546763578
311	2975	70	9.7288711201167
311	3006	71	11.212112321922
311	3037	72	11.002584867304
311	3056	73	7.2936836600581
311	3075	74	3.4357190075003
311	3094	75	5.6838483056425
311	3137	76	7.3071833979477
311	3180	77	9.1590464167668
311	3223	78	11.43246246761
311	3266	79	11.126564451967
311	3309	80	11.412198335545
311	3364	81	11.389779511079
311	3419	82	8.658959762998
312	2767	66	2.0036847069394
312	2822	67	4.2208030280657
312	2877	68	5.9564966026694
312	2932	69	8.0536706240382
312	2975	70	10.183340444998
312	3006	71	12.486156554008
312	3037	72	14.208970833591
312	3056	73	13.788199219967
312	3075	74	14.203046155463
312	3094	75	14.399731351363
312	3137	76	14.554120419801
312	3180	77	14.120848163122
312	3223	78	14.103376452925
312	3266	79	14.960885073894
312	3309	80	13.996507390307
312	3364	81	14.272730461972
312	3419	82	14.996903656956
313	2822	67	1.6129066847032
313	2877	68	1.950679934537
313	2932	69	2.1004749592859
313	2975	70	2.2216164437588
313	3006	71	1.4832412018052
313	3037	72	-0.20952745461837
313	3056	73	-3.7089012072454
313	3075	74	-3.8579646525577
313	3094	75	2.2481292981422
313	3137	76	1.6233350923052
313	3180	77	1.8518630188191
313	3223	78	2.2734160508433
313	3266	79	-0.30589801564347
313	3309	80	0.2856338835787
313	3364	81	-0.022418824466875
313	3419	82	-2.7308197480805
314	2822	67	2.6239581342318
314	2877	68	3.9272263650834
314	2932	69	5.3115164187236
314	2975	70	6.8733181668928
314	3006	71	5.7889738382591
314	3037	72	1.2082198754292
314	3056	73	0.973
314	3075	74	0.973
314	3094	75	4.480655985717
314	3137	76	4.3572854189478
314	3180	77	5.7104834951138
314	3223	78	8.0633071131527
314	3266	79	0.973
314	3309	80	2.5834178748071
314	3364	81	1.7344003031865
314	3419	82	0.973
315	2822	67	2.2171183211263
315	2877	68	1.7356935746036
315	2932	69	2.0971740213688
315	2975	70	2.1296698209597
315	3006	71	2.30281610901
315	3037	72	1.722814279583
315	3056	73	-0.42077161362395
315	3075	74	0.41484693549573
315	3094	75	0.1966851959005
315	3137	76	0.15438906843774
315	3180	77	-0.4332722566789
315	3223	78	-0.017471710196697
315	3266	79	0.85750862096902
315	3309	80	-0.96437768358737
315	3364	81	0.27622307166457
315	3419	82	0.72417319498491
316	2822	67	3.5758406619944
316	2877	68	3.908479687853
316	2932	69	5.6172430633961
316	2975	70	6.9254018139632
316	3006	71	8.821711609578
316	3037	72	7.9599894168723
316	3056	73	0.973
316	3075	74	3.4798262778878
316	3094	75	2.7630330294536
316	3137	76	2.6384109039511
316	3180	77	0.973
316	3223	78	1.9901065396589
316	3266	79	5.2328693210036
316	3309	80	0.973
316	3364	81	3.017241265164
316	3419	82	4.7623820257992
317	2822	67	1.5523065976566
317	2877	68	3.1808622945333
317	2932	69	5.1136095144786
317	2975	70	6.7265272651566
317	3006	71	9.158945692936
317	3037	72	8.7041319001212
317	3056	73	8.2006747986169
317	3075	74	8.2751215483739
317	3094	75	5.1474350565103
317	3137	76	1.7307084600077
317	3180	77	0.12339845092602
317	3223	78	0.038634722031047
317	3266	79	0.0066084802377143
317	3309	80	0
317	3364	81	1.7466661596904
317	3419	82	2.4991772316833
318	2877	68	2181.296521193
318	2932	69	2179.1856553777
318	2975	70	2174.9756770357
318	3006	71	2168.6037188826
318	3037	72	2160.4702153744
318	3056	73	2150.9338151255
318	3075	74	2139.4468111365
318	3094	75	2125.2767461737
318	3137	76	2108.3054954518
318	3180	77	2093.5397897528
318	3223	78	2075.3988671568
318	3266	79	2056.1253185168
318	3309	80	2037.6671101973
318	3364	81	2018.7065343005
318	3419	82	2000.5277725676
319	2877	68	808.8817598447
319	2932	69	810.03393416088
319	2975	70	812.3318674933
319	3006	71	815.80987470459
319	3037	72	820.24938657439
319	3056	73	824.81928625887
319	3075	74	830.200952724
319	3094	75	835.69445022489
319	3137	76	840.71983651974
319	3180	77	846.83131868548
319	3223	78	847.8454217903
319	3266	79	847.67191868925
319	3309	80	847.18999447632
319	3364	81	846.94664030625
319	3419	82	847.82564529703
320	2877	68	702.82319534282
320	2932	69	700.50339372923
320	2975	70	696.44879176407
320	3006	71	690.9131120843
320	3037	72	684.06844482487
320	3056	73	675.57182796269
320	3075	74	667.33884324519
320	3094	75	662.42097162242
320	3137	76	661.44317723569
320	3180	77	661.31514391116
320	3223	78	661.29508933492
320	3266	79	661.29424705204
320	3309	80	661.29408039658
320	3364	81	661.29408039658
320	3419	82	661.29397836694
321	2877	68	298.06782018111
321	2932	69	298.23556199688
321	2975	70	298.52874495351
321	3006	71	298.92902269948
321	3037	72	299.42395162259
321	3056	73	300.03833085743
321	3075	74	300.63364719725
321	3094	75	300.98925205195
321	3137	76	301.05995508315
321	3180	77	301.06921300513
321	3223	78	301.07066312526
321	3266	79	301.07072402964
321	3309	80	301.07073608027
321	3364	81	301.07073608027
321	3419	82	301.0707434579
322	2877	68	1.6285556968767
322	2932	69	1.9327472199453
322	2975	70	1.612917750678
322	3006	71	2.4324184277793
322	3037	72	-0.45481379281479
322	3056	73	-0.50345710150432
322	3075	74	0.074446749757044
322	3094	75	-3.1276864918636
322	3137	76	-3.4167265965026
322	3180	77	-1.6073100090817
322	3223	78	-0.084763728894969
322	3266	79	-0.032026241793333
322	3309	80	-0.0066084802377143
322	3364	81	1.7466661596904
322	3419	82	0.75251107199299
323	2877	68	2.5148488318791
323	2932	69	3.7509118496916
323	2975	70	4.077292939061
323	3006	71	6.9918947280428
323	3037	72	0.973
323	3056	73	0.973
323	3075	74	1.710008823099
323	3094	75	0.973
323	3137	76	0.973
323	3180	77	0.973
323	3223	78	1.11107451195
323	3266	79	1.1102677867199
323	3309	80	0.973
323	3364	81	1.9300045287482
323	3419	82	1.6852410125943
324	2932	69	330.07020474468
324	2975	70	331.62698793492
324	3006	71	335.12789124691
324	3037	72	339.76549554608
324	3056	73	346.40734854301
324	3075	74	354.79361553578
324	3094	75	364.53204036884
324	3137	76	374.3147444868
324	3180	77	384.42294299583
324	3223	78	394.80795169296
324	3266	79	405.54732209357
324	3309	80	415.57047297299
324	3364	81	425.95838964534
324	3419	82	436.20503790387
325	2932	69	161.07464843989
325	2975	70	159.93910273781
325	3006	71	157.3854807985
325	3037	72	154.00272868317
325	3056	73	149.15804146415
325	3075	74	143.04094725355
325	3094	75	135.93756475714
325	3137	76	128.80188415269
325	3180	77	121.42878207611
325	3223	78	113.85376966201
325	3266	79	106.02027943809
325	3309	80	98.709212634544
325	3364	81	91.132079090927
325	3419	82	83.65798927309
326	2932	69	626.18849079384
326	2975	70	624.30168785478
326	3006	71	620.4830094635
326	3037	72	614.52169200914
326	3056	73	607.09454388872
326	3075	74	597.50184096937
326	3094	75	586.31863682607
326	3137	76	575.33048635733
326	3180	77	568.47583574451
326	3223	78	559.19888538004
326	3266	79	548.37306006201
326	3309	80	536.37437045702
326	3364	81	524.74446256072
326	3419	82	513.08990883833
327	2932	69	304.51042257772
327	2975	70	304.77203931924
327	3006	71	305.30152238126
327	3037	72	306.12809542461
327	3056	73	307.15791483487
327	3075	74	308.48800163307
327	3094	75	310.03862113184
327	3137	76	311.56219524834
327	3180	77	312.51263438557
327	3223	78	313.78562214553
327	3266	79	315.26035057479
327	3309	80	316.88024076751
327	3364	81	318.45034336734
327	3419	82	320.02377329152
328	2932	69	2.4064975207206
328	2975	70	4.7995956771774
328	3006	71	7.2643658286426
328	3037	72	9.2726197398501
328	3056	73	10.584550254862
328	3075	74	12.693910228205
328	3094	75	15.21734163044
328	3137	76	17.723081477033
328	3180	77	16.518373067417
328	3223	78	18.166069645128
328	3266	79	19.264677351413
328	3309	80	18.452617905245
328	3364	81	18.952836505327
328	3419	82	18.205824335993
329	2932	69	2.3258192572044
329	2975	70	4.065119739389
329	3006	71	5.5500394195318
329	3037	72	6.8624225571286
329	3056	73	8.5186573728453
329	3075	74	8.2543413574958
329	3094	75	4.9306287475973
329	3137	76	0.98033081834481
329	3180	77	0.12836544729263
329	3223	78	0.020106598483548
329	3266	79	0.00084446779110954
329	3309	80	0.0001670877717472
329	3364	81	0
329	3419	82	0.00010229430328713
330	2975	70	533.98027303754
330	3006	71	534.09523200492
330	3037	72	534.31107038257
330	3056	73	534.54204659792
330	3075	74	532.84745958601
330	3094	75	531.2846105733
330	3137	76	530.90898388799
330	3180	77	530.46656446775
330	3223	78	530.81803502491
330	3266	79	535.09612877606
330	3309	80	544.1739468938
330	3364	81	555.42424755236
330	3419	82	568.27419334618
331	2975	70	138.88392491468
331	3006	71	137.05832653064
331	3037	72	133.63071925071
331	3056	73	129.96271652657
331	3075	74	127.75925505475
331	3094	75	130.81563389686
331	3137	76	136.71660795317
331	3180	77	143.97218560685
331	3223	78	150.38131156151
331	3266	79	156.68897149202
331	3309	80	156.854618401
331	3364	81	156.3607433394
331	3419	82	156.04709158446
332	2975	70	2.3930981564568
332	3006	71	2.4647701514652
332	3037	72	2.0082539112074
332	3056	73	1.3119305150118
332	3075	74	2.1093599733431
332	3094	75	2.5234314022353
332	3137	76	2.5057398465928
332	3180	77	-1.2047084096162
332	3223	78	1.647696577711
332	3266	79	1.0986077062856
332	3309	80	-0.81205944616813
332	3364	81	0.50021860008128
332	3419	82	-0.74701216933317
333	2975	70	4.1198490386847
333	3006	71	5.8109493472042
333	3037	72	6.1188101540604
333	3056	73	5.0767159051111
333	3075	74	8.3643317781922
333	3094	75	11.423993268532
333	3137	76	13.181903490344
333	3180	77	0.973
333	3223	78	9.7537877580619
333	3266	79	7.8004072020439
333	3309	80	0.973
333	3364	81	4.9380200235676
333	3419	82	0.973
334	2975	70	1.7393004821846
334	3006	71	1.4849196801428
334	3037	72	1.3123831375968
334	3056	73	1.6562348157167
334	3075	74	-0.26431601534949
334	3094	75	-3.3237126098986
334	3137	76	-3.9502979292525
334	3180	77	-0.85196537105218
334	3223	78	-0.10825884880908
334	3266	79	-0.019262130692439
334	3309	80	-0.00067738001936234
334	3364	81	-0.0001670877717472
334	3419	82	0.00010229430328713
335	2975	70	3.0162891022001
335	3006	71	3.3796951906807
335	3037	72	3.6413742012434
335	3056	73	4.9782907695037
335	3075	74	0.973
335	3094	75	0.973
335	3137	76	0.973
335	3180	77	0.973
335	3223	78	0.973
335	3266	79	1.1100368169603
335	3309	80	1.1100080330373
335	3364	81	0.973
335	3419	82	1.110004937199
336	2975	70	1.9269902255386
336	3006	71	4.3334270983003
336	3037	72	5.7404384955065
336	3056	73	8.2213026738726
336	3075	74	10.380542791798
336	3094	75	12.054247234366
336	3137	76	12.109056246779
336	3180	77	12.511954038832
336	3223	78	12.854590399596
336	3266	79	13.293220224985
336	3309	80	12.406681864787
336	3364	81	12.858189898785
336	3419	82	12.683327493849
337	2975	70	1.9049148673192
337	3006	71	3.8553349109599
337	3037	72	6.0185417419765
337	3056	73	7.4984433103586
337	3075	74	9.6847858515335
337	3094	75	11.290554723982
337	3137	76	11.093628676815
337	3180	77	6.9204502453883
337	3223	78	9.3608122118837
337	3266	79	10.921757401046
337	3309	80	12.107960304376
337	3364	81	11.735820142683
337	3419	82	11.760690415503
340	3006	71	2.4064368727617
340	3037	72	1.4070113972062
340	3056	73	2.480864178366
340	3075	74	2.1592401179252
340	3094	75	1.6737044425681
340	3137	76	0.054809012412656
340	3180	77	0.40289779205341
340	3223	78	0.34263636076357
340	3266	79	0.43862982538995
340	3309	80	-0.88653836019803
340	3364	81	0.45150803399738
340	3419	82	-0.17486240493599
341	3006	71	3.8397385347671
341	3037	72	3.3509172148671
341	3056	73	6.4733488077661
341	3075	74	7.1158832699814
341	3094	75	6.7155368362635
341	3137	76	2.0181116167034
341	3180	77	3.1094126152061
341	3223	78	2.9877997834415
341	3266	79	3.3734902120207
341	3309	80	0.973
341	3364	81	3.3258096639831
341	3419	82	1.375828020381
342	3006	71	1.9504200436408
342	3037	72	2.1632068310166
342	3056	73	1.479901568382
342	3075	74	2.186342541175
342	3094	75	1.6057688724482
342	3137	76	-0.19692604716681
342	3180	77	-4.1731784314266
342	3223	78	2.4403619664954
342	3266	79	1.5609451891622
342	3309	80	1.1862029033304
342	3364	81	-0.3721401616931
342	3419	82	0.024870272819779
343	3006	71	3.1134799713985
343	3037	72	4.558137350201
343	3056	73	4.1850398649101
343	3075	74	6.7641061736166
343	3094	75	6.1569507427237
343	3137	76	1.2447849459993
343	3180	77	0.973
343	3223	78	7.1426869667977
343	3266	79	5.8658485199314
343	3309	80	5.3194279701993
343	3364	81	0.973
343	3419	82	1.8980957817263
344	3006	71	1.8305966000073
344	3037	72	3.4369915572228
344	3056	73	3.6780451682862
344	3075	74	3.1978989372223
344	3094	75	3.7466345126934
344	3137	76	5.9171300427716
344	3180	77	7.274776529121
344	3223	78	6.4321703704018
344	3266	79	7.9240197349982
344	3309	80	9.1300437247711
344	3364	81	11.264311051472
344	3419	82	12.853493205072
345	3037	72	1.6063949572155
345	3056	73	0.2410536110634
345	3075	74	-0.48014623106388
345	3094	75	0.54873557547107
345	3137	76	2.1704955300782
345	3180	77	1.3576464863494
345	3223	78	-0.84260615871914
345	3266	79	1.4918493645964
345	3309	80	1.2060239897728
345	3364	81	2.1342673267005
345	3419	82	1.5891821536003
346	3037	72	2.6101521193323
346	3056	73	1.5056974257071
346	3075	74	0.973
346	3094	75	1.7910707936105
346	3137	76	4.5097689096178
346	3180	77	3.8767554698331
346	3223	78	0.973
346	3266	79	4.3871857721698
346	3309	80	4.2744026012627
346	3364	81	7.5793179125055
346	3419	82	6.8490207712968
348	3056	73	744.3
348	3075	74	743.24759376269
348	3094	75	740.33640903504
348	3137	76	738.2925765683
348	3180	77	736.41626158519
348	3223	78	732.1825887945
348	3266	79	726.43654672343
348	3309	80	718.69143075753
348	3364	81	711.60369698036
348	3419	82	702.4579857503
349	3056	73	222.74
349	3075	74	221.79252576289
349	3094	75	219.30163307971
349	3137	76	221.86263439674
349	3180	77	220.70630074436
349	3223	78	219.50652814781
349	3266	79	218.45573984555
349	3309	80	218.98418947479
349	3364	81	221.41154463064
349	3419	82	224.11940917403
352	3075	74	330.30786032689
352	3094	75	332.78045895237
352	3137	76	336.75845461612
352	3180	77	342.11929907759
352	3223	78	349.75966182541
352	3266	79	359.06125118421
352	3309	80	370.78917770112
352	3364	81	381.41624714403
352	3419	82	388.23343740875
353	3075	74	349.36809806835
353	3094	75	348.97942996311
353	3137	76	348.35412829816
353	3180	77	347.51145644764
353	3223	78	346.31046681595
353	3266	79	344.84834875338
353	3309	80	343.00483443176
353	3364	81	341.33436397932
353	3419	82	340.26276893921
354	3075	74	752.75836461608
354	3094	75	753.04779942188
354	3137	76	753.79782789219
354	3180	77	753.73440398084
354	3223	78	753.49306329109
354	3266	79	752.29941078821
354	3309	80	749.44946754161
354	3364	81	744.59428559616
354	3419	82	739.95846872694
355	3075	74	252.20958415118
355	3094	75	250.66986974212
355	3137	76	246.67992236945
355	3180	77	243.83608884809
355	3223	78	240.9832257693
355	3266	79	235.52658051532
355	3309	80	228.48671078849
355	3364	81	223.01524542451
355	3419	82	219.05014648372
356	3075	74	1.3808994377265
356	3094	75	3.741914003971
356	3137	76	0
356	3180	77	2.2609198600519
356	3223	78	4.5267830956727
356	3266	79	6.2217447159346
356	3309	80	8.7480178474914
356	3364	81	8.1933529764076
356	3419	82	8.8851689667802
357	3094	75	2.3610145662446
357	3137	76	-3.741914003971
357	3180	77	2.2609198600519
357	3223	78	2.2658632356208
357	3266	79	1.6949616202619
357	3309	80	2.5262731315568
357	3364	81	-0.55466487108379
357	3419	82	0.69181599037256
358	3094	75	3.4245159749659
358	3137	76	0.973
358	3180	77	2.4520682481864
358	3223	78	3.808895451035
358	3266	79	3.9738799611442
358	3309	80	6.9199206337764
358	3364	81	0.973
358	3419	82	3.0848231434831
359	3094	75	2.5030969839776
359	3137	76	4.0270623972639
359	3180	77	5.4269679942401
359	3223	78	7.7346030825516
359	3266	79	9.4163201541407
359	3309	80	11.872585056978
359	3364	81	10.758149420998
359	3419	82	6.9012771482505
360	3094	75	1.4347570260055
360	3137	76	3.7179654828273
360	3180	77	2.6219648629776
360	3223	78	2.6219648629776
360	3266	79	5.1616367451148
360	3309	80	7.2086199395126
360	3364	81	7.1570267160176
360	3419	82	5.9715666382627
361	3137	76	278.3900874919
361	3180	77	279.83122421384
361	3223	78	282.34783165167
361	3266	79	286.07150723923
361	3309	80	291.24089327791
361	3364	81	297.24624728682
361	3419	82	303.90489652609
362	3137	76	123.36181464679
362	3180	77	125.31267439256
362	3223	78	128.71939359664
362	3266	79	133.76011506286
362	3309	80	140.75788770972
362	3364	81	148.88730611721
362	3419	82	157.90108708904
363	3137	76	1.5239654132864
363	3180	77	1.3999055969762
363	3223	78	2.3076350883115
363	3266	79	1.6817170715891
363	3309	80	2.4562649028376
363	3364	81	-1.1144356359802
363	3419	82	-3.8568722727476
364	3137	76	2.7893405701233
364	3180	77	3.2174978423857
364	3223	78	5.8273849907244
364	3266	79	5.4577483542242
364	3309	80	8.8654267422587
364	3364	81	0.973
364	3419	82	0.973
365	3137	76	2.2832084568217
365	3180	77	-1.0960006198497
365	3223	78	0
365	3266	79	2.5396718821372
365	3309	80	2.0469831943978
365	3364	81	-0.051593223494943
365	3419	82	-1.185460077755
366	3137	76	3.3399249608946
366	3180	77	0.973
366	3223	78	1.2381487347334
366	3266	79	4.5309373497532
366	3309	80	5.0485256999457
366	3364	81	1.4001312585097
366	3419	82	0.973
369	3180	77	2.4256056307117
369	3223	78	4.2357515970245
369	3266	79	6.2673917988548
369	3309	80	8.7006955633406
369	3364	81	10.107729736296
369	3419	82	11.207303819135
370	3223	78	511.09433691756
370	3266	79	510.16468980218
370	3309	80	508.11090793761
370	3364	81	504.84233786691
370	3419	82	500.09140407164
371	3223	78	128.01372759857
371	3266	79	126.83349400451
371	3309	80	124.22611502024
371	3364	81	120.07650153986
371	3419	82	114.04495303553
372	3223	78	225.27367846079
372	3266	79	225.85684272331
372	3309	80	226.8674515163
372	3364	81	228.36073121271
372	3419	82	230.20617926577
373	3223	78	948.97571355214
373	3266	79	946.87416519263
373	3309	80	943.23223548682
373	3364	81	937.85090522026
373	3419	82	931.20046626548
374	3223	78	1.8101459663128
374	3266	79	2.0316402018303
374	3309	80	2.4333037644858
374	3364	81	1.4070341729559
374	3419	82	1.0995740828389
375	3223	78	3.1691793028796
375	3266	79	4.5037547383487
375	3309	80	6.6928838147928
375	3364	81	5.1204766244721
375	3419	82	4.7505859442321
377	3266	79	651.54680465718
377	3309	80	653.74729992144
377	3364	81	658.44246202672
377	3419	82	665.46537667023
378	3266	79	304.98217981889
378	3309	80	304.82306488895
378	3364	81	304.48356386772
378	3419	82	303.97574610977
381	3266	79	1.5024418528192
381	3309	80	3.3192033609608
381	3364	81	5.2824737385148
381	3419	82	7.678184179659
382	3266	79	2.1809670126531
382	3309	80	3.7795602060854
382	3364	81	5.5846936580958
382	3419	82	6.901762652467
383	3309	80	605.88431574887
383	3364	81	606.44950472551
383	3419	82	607.57138985262
384	3309	80	434.37708668772
384	3364	81	432.4038320548
384	3419	82	428.48697394864
385	3309	80	1.8167615081416
385	3364	81	1.963270377554
385	3419	82	2.3957104411442
386	3309	80	2.7267749017818
386	3364	81	3.8778363713205
386	3419	82	5.9553363095326
387	3309	80	1.5985931934323
387	3364	81	1.8051334520103
387	3419	82	1.3170689943712
388	3309	80	2.7534306323088
388	3364	81	3.8250454465232
388	3419	82	3.6640251077151
389	3309	80	2.2062034231843
389	3364	81	4.7073415141087
389	3419	82	7.0411323209293
390	3364	81	626.18849079384
390	3419	82	624.40237866228
391	3364	81	304.51042257772
391	3419	82	304.75807792432
392	3364	81	2.5011380909244
392	3419	82	2.3337908068206
393	3364	81	4.1841826131803
393	3419	82	5.4421517330943
394	3364	81	2.0525752724847
394	3419	82	4.0743074717233
395	3419	82	2.0217321992386
396	3419	82	3.2979477166271
397	3419	82	1.8032575017074

