version 2
run General-0-20241118-20:29:07-15872
attr configname General
attr datetime 20241118-20:29:07
attr experiment General
attr inifile omnetpp.ini
attr iterationvars ""
attr iterationvarsf ""
attr measurement ""
attr network RSUExampleScenario
attr processid 15872
attr repetition 0
attr replication #0
attr resultdir results
attr runnumber 0
attr seedset 0
param *.playgroundSizeX 2500m
param *.playgroundSizeY 1500m
param *.playgroundSizeZ 100m
param *.annotations.draw true
param *.manager.updateInterval 1s
param *.manager.host "\"localhost\""
param *.manager.port 9999
param *.manager.autoShutdown true
param *.manager.launchConfig "xmldoc(\"osm.launchd.xml\")"
param *.rsu[0].mobility.x 400
param *.rsu[0].mobility.y 250
param *.rsu[0].mobility.z 4
param *.rsu[*].applType "\"TraCIDemoRSU11p\""
param *.rsu[*].appl.headerLength "80 bit"
param *.rsu[*].appl.sendBeacons true
param *.rsu[*].appl.dataOnSch false
param *.rsu[*].appl.beaconInterval 1s
param *.rsu[*].appl.beaconUserPriority 7
param *.rsu[*].appl.dataUserPriority 5
param *.rsu[*].nic.phy80211p.antennaOffsetZ "0 m"
param *.connectionManager.sendDirect true
param *.connectionManager.maxInterfDist 150m
param *.connectionManager.drawMaxIntfDist false
param *.**.nic.mac1609_4.useServiceChannel false
param *.**.nic.mac1609_4.txPower 20mW
param *.**.nic.mac1609_4.bitrate 6Mbps
param *.**.nic.phy80211p.minPowerLevel -90dBm
param *.**.nic.phy80211p.useNoiseFloor true
param *.**.nic.phy80211p.noiseFloor -98dBm
param *.**.nic.phy80211p.decider "xmldoc(\"config.xml\")"
param *.**.nic.phy80211p.analogueModels "xmldoc(\"config.xml\")"
param *.**.nic.phy80211p.usePropagationDelay true
param *.**.nic.phy80211p.antenna "xmldoc(\"antenna.xml\", \"/root/Antenna[@id='monopole']\")"
param *.node[*].nic.phy80211p.antennaOffsetY "0 m"
param *.node[*].nic.phy80211p.antennaOffsetZ "1.895 m"
param *.node[*].applType "\"MyVeinsApp\""
param *.node[*].appl.headerLength "80 bit"
param *.node[*].appl.sendBeacons false
param *.node[*].appl.dataOnSch false
param *.node[*].appl.beaconInterval 1s
param *.node[*].veinsmobility.x 0
param *.node[*].veinsmobility.y 0
param *.node[*].veinsmobility.z 0
param *.node[*].veinsmobility.setHostSpeed true
param *.node[*0].veinsmobility.accidentCount 1
param *.node[*0].veinsmobility.accidentStart 73s
param *.node[*0].veinsmobility.accidentDuration 50s

vector 0 RSUExampleScenario.node[0].veinsmobility posx ETV
vector 1 RSUExampleScenario.node[0].veinsmobility posy ETV
vector 2 RSUExampleScenario.node[0].veinsmobility speed ETV
vector 3 RSUExampleScenario.node[0].veinsmobility acceleration ETV
vector 4 RSUExampleScenario.node[0].veinsmobility co2emission ETV
vector 5 RSUExampleScenario.node[1].veinsmobility posx ETV
vector 6 RSUExampleScenario.node[1].veinsmobility posy ETV
vector 7 RSUExampleScenario.node[1].veinsmobility speed ETV
vector 8 RSUExampleScenario.node[1].veinsmobility acceleration ETV
vector 9 RSUExampleScenario.node[1].veinsmobility co2emission ETV
vector 10 RSUExampleScenario.node[2].veinsmobility posx ETV
vector 11 RSUExampleScenario.node[2].veinsmobility posy ETV
vector 12 RSUExampleScenario.node[2].veinsmobility speed ETV
vector 13 RSUExampleScenario.node[2].veinsmobility acceleration ETV
vector 14 RSUExampleScenario.node[2].veinsmobility co2emission ETV
vector 15 RSUExampleScenario.node[3].veinsmobility posx ETV
vector 16 RSUExampleScenario.node[3].veinsmobility posy ETV
vector 17 RSUExampleScenario.node[3].veinsmobility speed ETV
vector 18 RSUExampleScenario.node[3].veinsmobility acceleration ETV
vector 19 RSUExampleScenario.node[3].veinsmobility co2emission ETV
vector 20 RSUExampleScenario.node[4].veinsmobility posx ETV
vector 21 RSUExampleScenario.node[4].veinsmobility posy ETV
vector 22 RSUExampleScenario.node[4].veinsmobility speed ETV
vector 23 RSUExampleScenario.node[4].veinsmobility acceleration ETV
vector 24 RSUExampleScenario.node[4].veinsmobility co2emission ETV
vector 25 RSUExampleScenario.node[5].veinsmobility posx ETV
vector 26 RSUExampleScenario.node[5].veinsmobility posy ETV
vector 27 RSUExampleScenario.node[5].veinsmobility speed ETV
vector 28 RSUExampleScenario.node[5].veinsmobility acceleration ETV
vector 29 RSUExampleScenario.node[5].veinsmobility co2emission ETV
vector 30 RSUExampleScenario.node[6].veinsmobility posx ETV
vector 31 RSUExampleScenario.node[6].veinsmobility posy ETV
vector 32 RSUExampleScenario.node[6].veinsmobility speed ETV
vector 33 RSUExampleScenario.node[6].veinsmobility acceleration ETV
vector 34 RSUExampleScenario.node[6].veinsmobility co2emission ETV
vector 35 RSUExampleScenario.node[7].veinsmobility posx ETV
vector 36 RSUExampleScenario.node[7].veinsmobility posy ETV
vector 37 RSUExampleScenario.node[7].veinsmobility speed ETV
vector 38 RSUExampleScenario.node[7].veinsmobility acceleration ETV
vector 39 RSUExampleScenario.node[7].veinsmobility co2emission ETV
vector 40 RSUExampleScenario.node[8].veinsmobility posx ETV
vector 41 RSUExampleScenario.node[8].veinsmobility posy ETV
vector 42 RSUExampleScenario.node[8].veinsmobility speed ETV
vector 43 RSUExampleScenario.node[8].veinsmobility acceleration ETV
vector 44 RSUExampleScenario.node[8].veinsmobility co2emission ETV
vector 45 RSUExampleScenario.node[9].veinsmobility posx ETV
vector 46 RSUExampleScenario.node[9].veinsmobility posy ETV
vector 47 RSUExampleScenario.node[9].veinsmobility speed ETV
vector 48 RSUExampleScenario.node[9].veinsmobility acceleration ETV
vector 49 RSUExampleScenario.node[9].veinsmobility co2emission ETV
19	835	42	0.973
19	866	43	1.3538306186218
19	897	44	3.5431572414124
19	928	45	1.6663003302709
19	959	46	1.7172738144048
19	990	47	1.4454347304129
19	1021	48	2.005334549651
19	1052	49	1.2246370700728
19	1083	50	0.973
19	1102	51	1.5440843614044
19	1121	52	4.526850302579
19	1140	53	0.973
19	1159	54	3.9652222308965
19	1178	55	0.973
19	1197	56	1.4891031707058
19	1216	57	3.8374552183057
19	1235	58	0.973
19	1254	59	1.2604180787681
19	1273	60	3.4179669437618
19	1292	61	1.2577916281772
19	1311	62	2.6309540487968
19	1330	63	0.973
19	1349	64	4.5764466436962
19	1368	65	0.973
19	1387	66	0.973
19	1406	67	3.224347762191
19	1425	68	0.973
19	1444	69	1.9767211615285
19	1463	70	2.7562543522833
19	1482	71	2.9158763079265
19	1501	72	0.973
19	1520	73	2.5681472681826
19	1540	74	0.973
19	1559	75	2.6545968395726
19	1578	76	2.2786864802189
19	1597	77	2.1014693234116
19	1616	78	0.973
19	1635	79	0.973
19	1654	80	2.3396933401289
19	1673	81	0.973
19	1692	82	2.4706924539988
19	1711	83	0.973
19	1730	84	3.6566438624308
19	1749	85	1.8077887727762
19	1768	86	0.973
19	1787	87	1.4338653237434
19	1806	88	3.0493482094372
19	1837	89	2.1058251886512
19	1868	90	1.7977261717268
19	1899	91	0.973
19	1930	92	0.973
19	1961	93	0.973
19	1992	94	3.6425255570933
19	2023	95	3.4230817162244
19	2054	96	7.2073477991457
19	2085	97	5.9105551111326
19	2116	98	1.2727850829896
19	2135	99	0.973
19	2154	100	0.973
19	2173	101	0.973
19	2192	102	4.0189481088386
19	2211	103	5.0265369149563
19	2230	104	6.8825236459761
19	2249	105	3.3553178603835
19	2268	106	0.973
19	2287	107	3.857941559225
19	2306	108	1.2405903620296
19	2325	109	0.973
19	2344	110	0.973
19	2363	111	3.1883677120141
19	2382	112	3.9464945912426
19	2401	113	4.6562291427198
19	2420	114	6.3908684171553
19	2439	115	3.1888137767855
19	2470	116	0.973
19	2501	117	0.973
19	2532	118	0.973
19	2563	119	0.973
19	2594	120	6.1253417044403
19	2625	121	6.6932564657165
19	2656	122	3.0231003054182
19	2687	123	1.6177945890045
19	2719	124	2.7843492046154
19	2750	125	0.973
19	2781	126	0.973
19	2812	127	0.973
19	2843	128	0.973
19	2874	129	3.8210153539864
19	2905	130	4.4049334185434
19	2936	131	5.2589135376646
19	2967	132	6.172983678454
19	2998	133	0.973
19	3029	134	3.4986426689129
19	3060	135	0.973
19	3091	136	1.5778835110437
18	835	42	-0.49634874938056
18	866	43	-0.14586682736408
18	897	44	0.65799731886946
18	928	45	-0.039619067776949
18	959	46	-0.019996290677227
18	990	47	-0.11936196009628
18	1021	48	0.088994176522828
18	1052	49	-0.20150843723677
18	1083	50	-0.62906653960235
18	1102	51	-0.062531436234714
18	1121	52	1.0197149918647
18	1140	53	-0.76875352701172
18	1159	54	0.80734855867922
18	1178	55	-0.64494215485174
18	1197	56	-0.092260914039798
18	1216	57	0.75805382414255
18	1235	58	-0.73555918140337
18	1254	59	-0.18059563988354
18	1273	60	0.62807921643835
18	1292	61	-0.18764145411551
18	1311	62	0.32185696833767
18	1330	63	-0.85108319688588
18	1349	64	1.0279893169645
18	1368	65	-0.31607552224304
18	1387	66	-0.2778021042468
18	1406	67	0.53459915493149
18	1425	68	-1.1672135810601
18	1444	69	0.11452075592242
18	1463	70	0.404131139745
18	1482	71	0.43517440482974
18	1501	72	-0.55730049228296
18	1520	73	0.31815189865883
18	1540	74	-0.22865411888342
18	1559	75	0.34421498412267
18	1578	76	0.19137903554365
18	1597	77	0.11988487190101
18	1616	78	-0.44096788608003
18	1635	79	-0.55556270261295
18	1654	80	0.24728472358547
18	1673	81	-0.2547135152854
18	1692	82	0.29687777149957
18	1711	83	-0.45616149615962
18	1730	84	0.73800356262364
18	1749	85	0.023911066632717
18	1768	86	-0.63490572459996
18	1787	87	-0.10493885362521
18	1806	88	0.51925031943247
18	1837	89	0.14209837743547
18	1868	90	0.021901254961266
18	1899	91	-0.31305744196288
18	1930	92	-2.935588032973
18	1961	93	-2.92835180575
18	1992	94	1.5186360970139
18	2023	95	1.1166784818701
18	2054	96	2.4041965243872
18	2085	97	1.5424825725723
18	2116	98	-0.18434374367353
18	2135	99	-0.47024997947737
18	2154	100	-0.97750391001222
18	2173	101	-4.5
18	2192	102	1.6103685823036
18	2211	103	1.724187891325
18	2230	104	2.0630994800711
18	2249	105	0.60094241651581
18	2268	106	-0.99304656700697
18	2287	107	0.80976078410167
18	2306	108	-0.19235229650512
18	2325	109	-2.1579830236251
18	2344	110	-4.0806452443125
18	2363	111	1.3046075610677
18	2382	112	1.4338872503722
18	2401	113	1.4823798019206
18	2420	114	1.8539191005519
18	2439	115	0.53820114233364
18	2470	116	-0.28712881959509
18	2501	117	-0.3176009199582
18	2532	118	-0.77283973939012
18	2563	119	-4.3584904307965
18	2594	120	2.4702338451752
18	2625	121	2.1163175751688
18	2656	122	0.5243155888351
18	2687	123	-0.037106764595954
18	2719	124	0.40295919580385
18	2750	125	-0.28202345431782
18	2781	126	-0.28821370191872
18	2812	127	-1.9052197900661
18	2843	128	-3.2014433673932
18	2874	129	1.4992783194408
18	2905	130	1.4771120201563
18	2936	131	1.5593118736753
18	2967	132	1.6245552013339
18	2998	133	-0.97571109118871
18	3029	134	0.66321087281685
18	3060	135	-0.50795226907358
18	3091	136	-0.05346142789349
17	804	41	11.13044027405
17	835	42	10.63409152467
17	866	43	10.488224697306
17	897	44	11.146222016175
17	928	45	11.106602948398
17	959	46	11.086606657721
17	990	47	10.967244697625
17	1021	48	11.056238874148
17	1052	49	10.854730436911
17	1083	50	10.225663897308
17	1102	51	10.163132461074
17	1121	52	11.182847452938
17	1140	53	10.414093925927
17	1159	54	11.221442484606
17	1178	55	10.576500329754
17	1197	56	10.484239415714
17	1216	57	11.242293239857
17	1235	58	10.506734058454
17	1254	59	10.32613841857
17	1273	60	10.954217635008
17	1292	61	10.766576180893
17	1311	62	11.088433149231
17	1330	63	10.237349952345
17	1349	64	11.265339269309
17	1368	65	10.949263747066
17	1387	66	10.671461642819
17	1406	67	11.206060797751
17	1425	68	10.038847216691
17	1444	69	10.153367972613
17	1463	70	10.557499112358
17	1482	71	10.992673517188
17	1501	72	10.435373024905
17	1520	73	10.753524923564
17	1540	74	10.52487080468
17	1559	75	10.869085788803
17	1578	76	11.060464824347
17	1597	77	11.180349696248
17	1616	78	10.739381810168
17	1635	79	10.183819107555
17	1654	80	10.43110383114
17	1673	81	10.176390315855
17	1692	82	10.473268087354
17	1711	83	10.017106591195
17	1730	84	10.755110153818
17	1749	85	10.779021220451
17	1768	86	10.144115495851
17	1787	87	10.039176642226
17	1806	88	10.558426961658
17	1837	89	10.700525339094
17	1868	90	10.722426594055
17	1899	91	10.409369152092
17	1930	92	7.4737811191192
17	1961	93	4.5454293133692
17	1992	94	6.0640654103832
17	2023	95	7.1807438922532
17	2054	96	9.5849404166404
17	2085	97	11.127422989213
17	2116	98	10.943079245539
17	2135	99	10.472829266062
17	2154	100	9.4953253560497
17	2173	101	4.9953253560497
17	2192	102	6.6056939383533
17	2211	103	8.3298818296783
17	2230	104	10.392981309749
17	2249	105	10.993923726265
17	2268	106	10.000877159258
17	2287	107	10.81063794336
17	2306	108	10.618285646855
17	2325	109	8.4603026232297
17	2344	110	4.3796573789173
17	2363	111	5.6842649399849
17	2382	112	7.1181521903571
17	2401	113	8.6005319922778
17	2420	114	10.45445109283
17	2439	115	10.992652235163
17	2470	116	10.705523415568
17	2501	117	10.38792249561
17	2532	118	9.6150827562198
17	2563	119	5.2565923254233
17	2594	120	7.7268261705986
17	2625	121	9.8431437457674
17	2656	122	10.367459334602
17	2687	123	10.330352570007
17	2719	124	10.73331176581
17	2750	125	10.451288311493
17	2781	126	10.163074609574
17	2812	127	8.2578548195077
17	2843	128	5.0564114521145
17	2874	129	6.5556897715553
17	2905	130	8.0328017917116
17	2936	131	9.5921136653869
17	2967	132	11.216668866721
17	2998	133	10.240957775532
17	3029	134	10.904168648349
17	3060	135	10.396216379275
17	3091	136	10.342754951382
16	773	40	836.7059994293
16	804	41	826.02514039924
16	835	42	815.82058157755
16	866	43	805.75599772378
16	897	44	795.05999440843
16	928	45	784.40200986569
16	959	46	773.76321392255
16	990	47	763.23895866585
16	1021	48	752.62930388941
16	1052	49	742.21301821235
16	1083	50	732.40038979093
16	1102	51	722.64776703317
16	1121	52	711.91661765735
16	1140	53	701.9231702815
16	1159	54	691.15498480626
16	1178	55	681.00569095336
16	1197	56	670.94493140751
16	1216	57	660.15673738166
16	1235	58	650.07439179769
16	1254	59	640.17621361377
16	1273	60	629.67876477317
16	1292	61	619.36113311629
16	1311	62	608.73506527787
16	1330	63	598.92459218259
16	1349	64	588.1289948527
16	1368	65	577.63629333291
16	1387	66	567.40981012959
16	1406	67	556.67101947848
16	1425	68	547.0323550559
16	1444	69	537.24804744691
16	1463	70	527.07429828548
16	1482	71	516.4811926847
16	1501	72	506.4251305026
16	1520	73	496.06248078706
16	1540	74	485.92017394113
16	1559	75	475.44616383206
16	1578	76	464.78773104091
16	1597	77	454.01377102101
16	1616	78	443.64811246535
16	1635	79	433.8053310479
16	1654	80	423.72354602517
16	1673	81	413.88794462262
16	1692	82	403.76540734839
16	1711	83	394.08375554653
16	1730	84	383.68881458709
16	1749	85	373.2707632994
16	1768	86	363.46635589148
16	1787	87	353.7633731247
16	1806	88	343.5585287929
16	1837	89	333.21634470143
16	1868	90	322.85299278842
16	1899	91	312.79221458964
16	1930	92	305.51897853287
16	1961	93	301.10103202588
16	1992	94	297.92213321158
16	2023	95	297.98426788724
16	2054	96	298.67554916567
16	2085	97	299.47807676159
16	2116	98	300.26730919101
16	2135	99	301.02262643756
16	2154	100	301.70744453407
16	2173	101	302.06771541194
16	2192	102	302.74276563062
16	2211	103	303.65419169289
16	2230	104	305.0417806986
16	2249	105	306.55166156049
16	2268	106	307.92515963096
16	2287	107	309.40986843393
16	2306	108	310.8681600033
16	2325	109	312.03007901735
16	2344	110	312.63157135282
16	2363	111	313.40510812361
16	2382	112	314.36882577941
16	2401	113	315.52610514464
16	2420	114	316.92477695804
16	2439	115	318.39545319913
16	2470	116	319.82771527737
16	2501	117	321.21748641556
16	2532	118	322.50386148348
16	2563	119	323.20712628953
16	2594	120	324.23252976623
16	2625	121	325.53660670965
16	2656	122	326.90985110173
16	2687	123	328.27818043653
16	2719	124	329.6998846087
16	2750	125	331.08423275038
16	2781	126	332.43040491883
16	2812	127	333.52421705308
16	2843	128	334.1939750378
16	2874	129	335.13707015929
16	2905	130	336.31117677038
16	2936	131	337.78570454083
16	2967	132	339.52737154911
16	2998	133	341.11753512644
16	3029	134	342.81067869814
16	3060	135	344.42495003786
16	3091	136	346.03092016033
15	773	40	565.71467961936
15	804	41	568.84578075968
15	835	42	571.83725416768
15	866	43	574.78769381796
15	897	44	577.92323451589
15	928	45	581.04762998458
15	959	46	584.16640030216
15	990	47	587.25159293905
15	1021	48	590.36182050365
15	1052	49	593.41536178433
15	1083	50	596.29194052704
15	1102	51	599.15092856836
15	1121	52	602.29677235798
15	1140	53	605.22635830104
15	1159	54	608.38305924857
15	1178	55	611.35833169312
15	1197	56	614.30765024492
15	1216	57	617.47021671277
15	1235	58	620.42586322643
15	1254	59	623.3674602354
15	1273	60	626.4973744296
15	1292	61	629.57367442054
15	1311	62	632.741937592
15	1330	63	635.66702343513
15	1349	64	638.88583343656
15	1368	65	642.01433217191
15	1387	66	645.06345538467
15	1406	67	648.26532793464
15	1425	68	651.06967165941
15	1444	69	653.78194213037
15	1463	70	656.60216820381
15	1482	71	659.53864247106
15	1501	72	662.32624498731
15	1520	73	665.19883546049
15	1540	74	668.01034552997
15	1559	75	670.91380579171
15	1578	76	673.86838915942
15	1597	77	676.85499738812
15	1616	78	679.66249095711
15	1635	79	682.27553900687
15	1654	80	684.95203740446
15	1673	81	687.56317931375
15	1692	82	690.25049656293
15	1711	83	692.82076814434
15	1730	84	695.58040274856
15	1749	85	698.34617265088
15	1768	86	700.94903322146
15	1787	87	703.52496771804
15	1806	88	706.23413573146
15	1837	89	708.97976451506
15	1868	90	711.73101290276
15	1899	91	714.40193443767
15	1930	92	716.07419857288
15	1961	93	715.76395552843
15	1992	94	711.14167994906
15	2023	95	703.97868984645
15	2054	96	694.41854875818
15	2085	97	683.31991599663
15	2116	98	672.4051500221
15	2135	99	661.95941733887
15	2154	100	652.48865944817
15	2173	101	647.50625860792
15	2192	102	640.93566254365
15	2211	103	632.65549486282
15	2230	104	622.35628931329
15	2249	105	611.46689580054
15	2268	106	601.56110696924
15	2287	107	590.85325655839
15	2306	108	580.33592955865
15	2325	109	571.95606748254
15	2344	110	567.6180518807
15	2363	111	561.98492616423
15	2382	112	554.92879540716
15	2401	113	546.40458923039
15	2420	114	536.04448641373
15	2439	115	525.15103955814
15	2470	116	514.54213027093
15	2501	117	504.24795565091
15	2532	118	494.71964612413
15	2563	119	489.51049296314
15	2594	120	481.85102099539
15	2625	121	472.09332861183
15	2656	122	461.81772508941
15	2687	123	451.57889956521
15	2719	124	440.94068506844
15	2750	125	430.58199529485
15	2781	126	420.50896564638
15	2812	127	412.32427551813
15	2843	128	407.31266393121
15	2874	129	400.82444815253
15	2905	130	392.87664955438
15	2936	131	383.39879063401
15	2967	132	372.31878846076
15	2998	133	362.2026090712
15	3029	134	351.43129953566
15	3060	135	341.16175325194
15	3091	136	330.94501700873
9	305	16	0.973
9	324	17	3.9464647693789
9	343	18	1.6007053238051
9	362	19	0.973
9	381	20	2.0225587939251
9	400	21	3.261700555886
9	419	22	2.3124994925713
9	438	23	0.973
9	457	24	1.290919599959
9	476	25	2.7796534944845
9	495	26	2.4134563573761
9	514	27	0.973
9	533	28	3.069383118891
9	552	29	0.973
9	571	30	0.973
9	590	31	2.1851571094937
9	609	32	4.2408413053237
9	628	33	0.973
9	647	34	2.4048461713661
9	666	35	0.973
9	685	36	3.3308811512055
9	704	37	1.4911101938823
9	723	38	0.973
9	742	39	1.8270331609201
9	773	40	3.1786697515982
9	804	41	0.973
9	835	42	3.2963890208663
9	866	43	2.7389069182925
9	897	44	0.973
9	928	45	0.973
9	959	46	3.5255214036049
9	990	47	1.6017421274937
9	1021	48	0.973
9	1052	49	4.8023155528994
9	1083	50	0.973
9	1102	51	1.821314885649
9	1121	52	1.8024682587718
9	1140	53	3.9761583043761
9	1159	54	0.973
9	1178	55	2.6923074646476
9	1197	56	0.973
9	1216	57	2.4782416359954
9	1235	58	1.3302808905154
9	1254	59	1.4209406182345
9	1273	60	1.7092579687384
9	1292	61	0.973
9	1311	62	4.4551433151749
9	1330	63	0.973
9	1349	64	2.6229823153757
9	1368	65	2.0059978233541
9	1387	66	1.3838963609595
9	1406	67	1.7033347878695
9	1425	68	3.4510361217589
9	1444	69	0.973
9	1463	70	3.4520514445683
9	1482	71	1.4572533714813
9	1501	72	3.0777159308224
9	1520	73	0.973
9	1540	74	2.5450204504349
9	1559	75	1.398357443187
9	1578	76	3.0345600334863
9	1597	77	1.5031154197596
9	1616	78	0.973
9	1635	79	4.5353915390402
9	1654	80	0.973
9	1673	81	3.0525628256413
9	1692	82	1.2970712889234
9	1711	83	3.0378613877402
9	1730	84	0.973
9	1749	85	4.2470710555766
9	1768	86	0.973
9	1787	87	3.2302837718897
9	1806	88	3.4994106983582
9	1837	89	1.4179701224904
9	1868	90	0.973
9	1899	91	2.1688013499236
9	1930	92	0.973
9	1961	93	5.4646095805654
9	1992	94	0.973
9	2023	95	8.2605703841122
9	2054	96	0.973
9	2085	97	1.3149631995738
9	2116	98	1.9331989781424
9	2135	99	0.973
9	2154	100	0.973
9	2173	101	5.4516129838315
9	2192	102	6.2487497583328
9	2211	103	5.5408670113195
9	2230	104	0.973
9	2249	105	4.0017534761515
9	2268	106	1.7215248823485
9	2287	107	0.973
9	2306	108	0.973
9	2325	109	7.9143296110099
9	2344	110	4.9765759768432
9	2363	111	0.973
9	2382	112	0.973
9	2401	113	2.5949750743285
9	2420	114	0.973
9	2439	115	0.973
9	2470	116	0.973
9	2501	117	3.779868836802
9	2532	118	4.5804897674451
9	2563	119	4.4093798282848
9	2594	120	8.5487982928527
9	2625	121	2.1939491787481
9	2656	122	0.973
9	2687	123	0.973
9	2719	124	0.973
9	2750	125	1.2852750080087
9	2781	126	3.3013244501557
9	2812	127	1.4584087824324
9	2843	128	3.1197055357299
9	2874	129	0.973
9	2905	130	1.2433460142944
9	2936	131	9.8018229977941
9	2967	132	7.6858118335283
9	2998	133	9.4621271877854
9	3029	134	5.5976747160159
9	3060	135	0.973
9	3091	136	2.4899082566682
9	3122	137	1.9470928775825
9	3141	138	1.9169822814203
9	3160	139	6.6650016009492
8	305	16	-0.30721754173283
8	324	17	0.76523482063785
8	343	18	-0.073846101900562
8	362	19	-0.87927338609006
8	381	20	0.10855594426394
8	400	21	0.5430426526349
8	419	22	0.18493673645426
8	438	23	-0.39689575319644
8	457	24	-0.17662184832152
8	476	25	0.36699160824064
8	495	26	0.22078223719727
8	514	27	-0.51001562541351
8	533	28	0.46144263336901
8	552	29	-0.58807911893818
8	571	30	-0.37468959642574
8	590	31	0.17583736907691
8	609	32	0.87720311805606
8	628	33	-0.75950915268622
8	647	34	0.24202619988937
8	666	35	-0.62513258524705
8	685	36	0.59405945716426
8	704	37	-0.099899849388748
8	723	38	-0.31491493999492
8	742	39	0.037816776428372
8	773	40	0.52480604718439
8	804	41	-0.38788566880394
8	835	42	0.55521224022377
8	866	43	0.33023136877455
8	897	44	-0.26853054594249
8	928	45	-0.87122174436226
8	959	46	0.6533049096819
8	990	47	-0.062633829191327
8	1021	48	-0.65199583088979
8	1052	49	1.0822700885823
8	1083	50	-0.96782094519585
8	1102	51	0.036532766185701
8	1121	52	0.028176140319555
8	1140	53	0.79479138441384
8	1159	54	-0.28824300435372
8	1178	55	0.32470223023556
8	1197	56	-0.62349777300842
8	1216	57	0.26607003763784
8	1235	58	-0.16187964223791
8	1254	59	-0.12496236097068
8	1273	60	-0.013549299747682
8	1292	61	-0.36033633574843
8	1311	62	0.97064922766294
8	1330	63	-0.80936361064669
8	1349	64	0.33057141776662
8	1368	65	0.091958852880634
8	1387	66	-0.14047646238468
8	1406	67	-0.017751194164157
8	1425	68	0.5997577035334
8	1444	69	-0.86627218474168
8	1463	70	0.62091045244597
8	1482	71	-0.11689649843611
8	1501	72	0.45747137311846
8	1520	73	-0.86691784623545
8	1540	74	0.29742853287607
8	1559	75	-0.13444984017406
8	1578	76	0.45911448544357
8	1597	77	-0.10210022223182
8	1616	78	-0.51823337238748
8	1635	79	0.97027112061624
8	1654	80	-1.176154254307
8	1673	81	0.49052081075497
8	1692	82	-0.17255996058229
8	1711	83	0.46353819423821
8	1730	84	-0.66033828225918
8	1749	85	0.88545295121148
8	1768	86	-1.0837172931992
8	1787	87	0.55864520648029
8	1806	88	0.60779055852909
8	1837	89	-0.13795667937957
8	1868	90	-0.43680697511882
8	1899	91	0.14775466775633
8	1930	92	-4.0493071817793
8	1961	93	1.8063413808274
8	1992	94	-0.33093247546349
8	2023	95	2.4524649926694
8	2054	96	-0.45307349749139
8	2085	97	-0.15954326868523
8	2116	98	0.084256167407148
8	2135	99	-0.84284421766186
8	2154	100	-4.1494280016748
8	2173	101	2.1430918511003
8	2192	102	1.9853496364085
8	2211	103	1.4212664190867
8	2230	104	-0.5339090884896
8	2249	105	0.81263262128923
8	2268	106	-0.02390689055901
8	2287	107	-0.53159035632852
8	2306	108	-2.7532598009747
8	2325	109	2.4593247350771
8	2344	110	1.1332801322867
8	2363	111	-0.32868898194283
8	2382	112	-0.22460451812949
8	2401	113	0.29467793258373
8	2420	114	-0.6686819071183
8	2439	115	-2.4714809236719
8	2470	116	-2.9461269052466
8	2501	117	1.4409155321773
8	2532	118	1.528189688758
8	2563	119	1.217998128381
8	2594	120	2.3642453478184
8	2625	121	0.1229273016369
8	2656	122	-0.50311698947169
8	2687	123	-0.38987427351531
8	2719	124	-0.33587922197766
8	2750	125	-0.1733387055574
8	2781	126	0.57299016918987
8	2812	127	-0.11452129227109
8	2843	128	0.47798427410889
8	2874	129	-0.77232411301229
8	2905	130	-0.18955677882768
8	2936	131	2.5100635003299
8	2967	132	1.5889868666884
8	2998	133	1.810456270352
8	3029	134	0.77151622910372
8	3060	135	-0.80846063527279
8	3091	136	0.045702130394059
8	3122	137	-0.089315404277297
8	3141	138	-0.094596471870318
8	3160	139	1.0225744403666
7	286	15	11.117513867288
7	305	16	10.810296325555
7	324	17	11.575531146193
7	343	18	11.501685044293
7	362	19	10.622411658203
7	381	20	10.730967602467
7	400	21	11.274010255101
7	419	22	11.458946991556
7	438	23	11.062051238359
7	457	24	10.885429390038
7	476	25	11.252420998278
7	495	26	11.473203235476
7	514	27	10.963187610062
7	533	28	11.424630243431
7	552	29	10.836551124493
7	571	30	10.461861528067
7	590	31	10.637698897144
7	609	32	11.5149020152
7	628	33	10.755392862514
7	647	34	10.997419062403
7	666	35	10.372286477156
7	685	36	10.966345934321
7	704	37	10.866446084932
7	723	38	10.551531144937
7	742	39	10.589347921365
7	773	40	11.11415396855
7	804	41	10.726268299746
7	835	42	11.28148053997
7	866	43	11.611711908744
7	897	44	11.343181362802
7	928	45	10.471959618439
7	959	46	11.125264528121
7	990	47	11.06263069893
7	1021	48	10.41063486804
7	1052	49	11.492904956622
7	1083	50	10.525084011427
7	1102	51	10.561616777612
7	1121	52	10.589792917932
7	1140	53	11.384584302346
7	1159	54	11.096341297992
7	1178	55	11.421043528227
7	1197	56	10.797545755219
7	1216	57	11.063615792857
7	1235	58	10.901736150619
7	1254	59	10.776773789648
7	1273	60	10.763224489901
7	1292	61	10.402888154152
7	1311	62	11.373537381815
7	1330	63	10.564173771168
7	1349	64	10.894745188935
7	1368	65	10.986704041816
7	1387	66	10.846227579431
7	1406	67	10.828476385267
7	1425	68	11.4282340888
7	1444	69	10.561961904059
7	1463	70	11.182872356505
7	1482	71	11.065975858068
7	1501	72	11.523447231187
7	1520	73	10.656529384951
7	1540	74	10.953957917828
7	1559	75	10.819508077653
7	1578	76	11.278622563097
7	1597	77	11.176522340865
7	1616	78	10.658288968478
7	1635	79	11.628560089094
7	1654	80	10.452405834787
7	1673	81	10.942926645542
7	1692	82	10.77036668496
7	1711	83	11.233904879198
7	1730	84	10.573566596939
7	1749	85	11.45901954815
7	1768	86	10.375302254951
7	1787	87	10.933947461431
7	1806	88	11.54173801996
7	1837	89	11.403781340581
7	1868	90	10.966974365462
7	1899	91	11.114729033218
7	1930	92	7.065421851439
7	1961	93	8.8717632322664
7	1992	94	8.5408307568029
7	2023	95	10.993295749472
7	2054	96	10.540222251981
7	2085	97	10.380678983296
7	2116	98	10.464935150703
7	2135	99	9.622090933041
7	2154	100	5.4726629313662
7	2173	101	7.6157547824665
7	2192	102	9.601104418875
7	2211	103	11.022370837962
7	2230	104	10.488461749472
7	2249	105	11.301094370761
7	2268	106	11.277187480202
7	2287	107	10.745597123874
7	2306	108	7.9923373228991
7	2325	109	10.451662057976
7	2344	110	11.584942190263
7	2363	111	11.25625320832
7	2382	112	11.031648690191
7	2401	113	11.326326622774
7	2420	114	10.657644715656
7	2439	115	8.186163791984
7	2470	116	5.2400368867374
7	2501	117	6.6809524189147
7	2532	118	8.2091421076727
7	2563	119	9.4271402360537
7	2594	120	11.791385583872
7	2625	121	11.914312885509
7	2656	122	11.411195896037
7	2687	123	11.021321622522
7	2719	124	10.685442400544
7	2750	125	10.512103694987
7	2781	126	11.085093864177
7	2812	127	10.970572571906
7	2843	128	11.448556846015
7	2874	129	10.676232733002
7	2905	130	10.486675954175
7	2936	131	12.996739454504
7	2967	132	14.585726321193
7	2998	133	16.396182591545
7	3029	134	17.167698820649
7	3060	135	16.359238185376
7	3091	136	16.40494031577
7	3122	137	16.315624911493
7	3141	138	16.221028439622
7	3160	139	17.243602879989
6	267	14	1156.8034521536
6	286	15	1146.1730426818
6	305	16	1135.7920885076
6	324	17	1124.6574604927
6	343	18	1113.5831297526
6	362	19	1103.3197226703
6	381	20	1092.951428498
6	400	21	1082.068531469
6	419	22	1071.013377662
6	438	23	1060.3411336983
6	457	24	1049.8435556332
6	476	25	1039.0766280554
6	495	26	1028.0984440413
6	514	27	1017.5997497421
6	533	28	1006.6325136386
6	552	29	996.22981243973
6	571	30	986.18095332842
6	590	31	975.95455713343
6	609	32	964.90084991189
6	628	33	954.58098579066
6	647	34	944.0288960754
6	666	35	934.07662483445
6	685	36	923.55434997242
6	704	37	913.13434545345
6	723	38	903.01745072651
6	742	39	892.86429696373
6	773	40	882.2079548524
6	804	41	871.91746419978
6	835	42	861.08673885154
6	866	43	849.93897663532
6	897	44	839.04901574052
6	928	45	828.99546664443
6	959	46	818.31471564692
6	990	47	807.7281618173
6	1021	48	797.83555176312
6	1052	49	786.91452450909
6	1083	50	776.87009044861
6	1102	51	766.71925945527
6	1121	52	756.54134821045
6	1140	53	745.59955836749
6	1159	54	734.93480054376
6	1178	55	723.95796952786
6	1197	56	713.56175939559
6	1216	57	702.89915367373
6	1235	58	692.39256013017
6	1254	59	682.00968359082
6	1273	60	671.67121457257
6	1292	61	661.67886172487
6	1311	62	650.75416495205
6	1330	63	640.6068913967
6	1349	64	630.14209195827
6	1368	65	619.60367165605
6	1387	66	609.21268875996
6	1406	67	598.83871199375
6	1425	68	587.89015093144
6	1444	69	577.73426967877
6	1463	70	566.98123258927
6	1482	71	556.34059885583
6	1501	72	545.26007754381
6	1520	73	535.01315241861
6	1540	74	524.48023099984
6	1559	75	514.07659158232
6	1578	76	503.23148463008
6	1597	77	492.48455348112
6	1616	78	482.23593640538
6	1635	79	471.05434245087
6	1654	80	461.0036949935
6	1673	81	450.49700832797
6	1692	82	440.17907690421
6	1711	83	429.41707932742
6	1730	84	419.28768092874
6	1749	85	408.31002516828
6	1768	86	398.37056253912
6	1787	87	387.89592194442
6	1806	88	376.83902250131
6	1837	89	365.91428453412
6	1868	90	355.40800441025
6	1899	91	344.76017641024
6	1930	92	337.99155466545
6	1961	93	329.82701190604
6	1992	94	326.21934090252
6	2023	95	324.74857856745
6	2054	96	323.33843167022
6	2085	97	321.94962962132
6	2116	98	320.54955517509
6	2135	99	319.26224250276
6	2154	100	318.53007021382
6	2173	101	317.50492871463
6	2192	102	316.20678742105
6	2211	103	314.69499729761
6	2230	104	313.25453545155
6	2249	105	311.7024684613
6	2268	106	310.15368478985
6	2287	107	308.67790854736
6	2306	108	307.58025883957
6	2325	109	306.3134224994
6	2344	110	305.14835316262
6	2363	111	304.33653412464
6	2382	112	303.54091392479
6	2401	113	302.72404107975
6	2420	114	301.95539464651
6	2439	115	301.36499538208
6	2470	116	300.98707551605
6	2501	117	297.59807562859
6	2532	118	291.5401625832
6	2563	119	284.28585436928
6	2594	120	274.96062727735
6	2625	121	266.06780633834
6	2656	122	260.22802200692
6	2687	123	248.34422461038
6	2719	124	238.71140872075
6	2750	125	227.41206194607
6	2781	126	219.52359702777
6	2812	127	215.86372160843
6	2843	128	215.90600791056
6	2874	129	220.06260746832
6	2905	130	224.76025258164
6	2936	131	226.93511862733
6	2967	132	230.57087696675
6	2998	133	233.52778407959
6	3029	134	235.59864094505
6	3060	135	237.36835291198
6	3091	136	239.14300885039
6	3122	137	240.90800281446
6	3141	138	242.66276350809
6	3160	139	244.52814440321
5	267	14	241.91314494319
5	286	15	245.16805859255
5	305	16	248.1829534557
5	324	17	251.34744588796
5	343	18	254.45283825523
5	362	19	257.19126394385
5	381	20	259.95767502751
5	400	21	262.90146918591
5	419	22	265.91677244736
5	438	23	268.8276367006
5	457	24	271.7068359096
5	476	25	274.97657993008
5	495	26	278.31047915771
5	514	27	281.46755883987
5	533	28	284.66801438393
5	552	29	287.70372752176
5	571	30	290.61425631121
5	590	31	293.54381804472
5	609	32	296.77003880436
5	628	33	299.79985279826
5	647	34	302.89784601878
5	666	35	305.81973823777
5	685	36	308.90897810083
5	704	37	311.99182970572
5	723	38	314.98918016199
5	742	39	317.99727314752
5	773	40	321.15444664311
5	804	41	324.18082610917
5	835	42	327.33806758894
5	866	43	330.58772780504
5	897	44	333.76223691174
5	928	45	336.69292541178
5	959	46	339.80644819074
5	990	47	343.01248072217
5	1021	48	346.25569225558
5	1052	49	349.83606198137
5	1083	50	352.97485965564
5	1102	51	355.8919198052
5	1121	52	358.8167620489
5	1140	53	361.96112127789
5	1159	54	365.02586938302
5	1178	55	368.18029844857
5	1197	56	371.09649284738
5	1216	57	374.04833603785
5	1235	58	376.95698870828
5	1254	59	379.84389637399
5	1273	60	382.83788264153
5	1292	61	385.73163481639
5	1311	62	388.8953906933
5	1330	63	391.83400739022
5	1349	64	394.86457852758
5	1368	65	397.97068926353
5	1387	66	401.08019645781
5	1406	67	404.18461455861
5	1425	68	407.46097731763
5	1444	69	410.36165370666
5	1463	70	413.43245043651
5	1482	71	416.47114759715
5	1501	72	419.6354655779
5	1520	73	422.56172947
5	1540	74	425.56966670479
5	1559	75	428.54068425414
5	1578	76	431.63777381931
5	1597	77	434.70682684623
5	1616	78	437.63357391682
5	1635	79	440.82675570018
5	1654	80	443.69696763083
5	1673	81	446.75530923514
5	1692	82	449.8443195688
5	1711	83	453.06627563346
5	1730	84	456.098842438
5	1749	85	459.38536283542
5	1768	86	462.36106615341
5	1787	87	465.49699250429
5	1806	88	468.80723709066
5	1837	89	472.0779148154
5	1868	90	475.22331349446
5	1899	91	478.41108916113
5	1930	92	480.437497523
5	1961	93	483.76468018964
5	1992	94	491.09961650912
5	2023	95	501.99544161863
5	2054	96	512.44221034843
5	2085	97	522.73085037937
5	2116	98	533.10299953127
5	2135	99	542.63977743514
5	2154	100	548.06391770594
5	2173	101	555.60992822943
5	2192	102	565.12106245964
5	2211	103	576.03876124812
5	2230	104	586.42749871594
5	2249	105	597.62114229507
5	2268	106	608.79110629033
5	2287	107	619.43453428972
5	2306	108	627.350880479
5	2325	109	637.72418126311
5	2344	110	649.24869437878
5	2363	111	660.47582403417
5	2382	112	671.47893029567
5	2401	113	682.77595206301
5	2420	114	693.40602201873
5	2439	115	701.57100556805
5	2470	116	706.79748479143
5	2501	117	712.29152730643
5	2532	118	717.82619557378
5	2563	119	723.84610699524
5	2594	120	731.25348884729
5	2625	121	739.49599016224
5	2656	122	749.28717199122
5	2687	123	750.22309408327
5	2719	124	750.06374670449
5	2750	125	748.82216056182
5	2781	126	740.66998197393
5	2812	127	730.14498058338
5	2843	128	717.72432334762
5	2874	129	707.29369572819
5	2905	130	698.14476835088
5	2936	131	685.37073567281
5	2967	132	671.25866504932
5	2998	133	655.14949225134
5	3029	134	638.12828722656
5	3060	135	621.87952907236
5	3091	136	605.58537743127
5	3122	137	589.37993801426
5	3141	138	573.26845622389
5	3160	139	556.14130581938
vector 50 RSUExampleScenario.node[10].veinsmobility posx ETV
vector 51 RSUExampleScenario.node[10].veinsmobility posy ETV
vector 52 RSUExampleScenario.node[10].veinsmobility speed ETV
vector 53 RSUExampleScenario.node[10].veinsmobility acceleration ETV
vector 54 RSUExampleScenario.node[10].veinsmobility co2emission ETV
vector 55 RSUExampleScenario.node[11].veinsmobility posx ETV
vector 56 RSUExampleScenario.node[11].veinsmobility posy ETV
vector 57 RSUExampleScenario.node[11].veinsmobility speed ETV
vector 58 RSUExampleScenario.node[11].veinsmobility acceleration ETV
vector 59 RSUExampleScenario.node[11].veinsmobility co2emission ETV
vector 60 RSUExampleScenario.node[12].veinsmobility posx ETV
vector 61 RSUExampleScenario.node[12].veinsmobility posy ETV
vector 62 RSUExampleScenario.node[12].veinsmobility speed ETV
4	58	3	3.7547761313703
4	77	4	4.8771001745242
4	96	5	5.4857505436358
4	115	6	7.7989912180538
4	134	7	6.0356828869265
4	153	8	0.973
4	172	9	0.973
4	191	10	0.973
4	210	11	2.4320023028197
4	229	12	2.3606415898305
4	248	13	1.8139042068374
4	267	14	1.8093141593836
4	286	15	3.7398470039904
4	305	16	0.973
4	324	17	1.3222247532535
4	343	18	0.973
4	362	19	3.9230734537911
4	381	20	1.5096006908452
4	400	21	1.8390346098048
4	419	22	6.430232999833
4	438	23	5.4204209452457
4	457	24	2.4344546316184
4	476	25	2.5651085836338
4	495	26	0.973
4	514	27	0.973
4	533	28	4.7510961420279
4	552	29	4.0660578752983
4	571	30	7.9297163807621
4	590	31	3.7634466059458
4	609	32	4.3565998682818
4	628	33	0.973
4	647	34	2.8226295181449
4	666	35	0.973
4	685	36	6.6710951240992
4	704	37	7.6994789667581
4	723	38	2.1174225940369
4	742	39	1.2595428515247
4	773	40	0.973
4	804	41	4.7661697712961
4	835	42	0.973
4	866	43	0.973
4	897	44	4.7577479999582
4	928	45	7.0363567688161
4	959	46	6.3873449823592
4	990	47	7.1362516065131
4	1021	48	1.263310700017
4	1052	49	0.973
4	1083	50	3.1600980489306
4	1102	51	3.1459788004134
4	1121	52	0.973
4	1140	53	0.973
4	1159	54	2.5183379925391
4	1178	55	3.5662657274416
4	1197	56	1.5356558092265
4	1216	57	0.973
4	1235	58	2.4237242336929
4	1254	59	3.0769608347299
4	1273	60	2.1711722764494
4	1292	61	2.1820208769199
4	1311	62	1.2597908633248
4	1330	63	2.6938958256851
4	1349	64	0.973
4	1368	65	3.3035832284682
4	1387	66	0.973
4	1406	67	4.7456353985358
4	1425	68	0.973
4	1444	69	2.1692685530086
4	1463	70	0.973
4	1482	71	1.7134325839549
4	1501	72	1.7638053425209
4	1520	73	2.7839058821508
4	1540	74	0.973
4	1559	75	0.973
4	1578	76	0.973
4	1597	77	0.973
4	1616	78	0.973
4	1635	79	0.973
4	1654	80	0.973
4	1673	81	0.973
4	1692	82	0.973
4	1711	83	0.973
4	1730	84	0.973
4	1749	85	0.973
4	1768	86	0.973
4	1787	87	0.973
4	1806	88	0.973
4	1837	89	0.973
4	1868	90	0.973
4	1899	91	0.973
4	1930	92	0.973
4	1961	93	0.973
4	1992	94	0.973
4	2023	95	0.973
4	2054	96	0.973
4	2085	97	0.973
4	2116	98	0.973
4	2135	99	0.973
4	2154	100	0.973
4	2173	101	0.973
4	2192	102	0.973
4	2211	103	0.973
4	2230	104	0.973
4	2249	105	0.973
4	2268	106	0.973
4	2287	107	0.973
4	2306	108	0.973
4	2325	109	0.973
4	2344	110	0.973
4	2363	111	0.973
4	2382	112	0.973
4	2401	113	0.973
4	2420	114	0.973
4	2439	115	0.973
4	2470	116	0.973
4	2501	117	0.973
4	2532	118	0.973
4	2563	119	0.973
4	2594	120	0.973
4	2625	121	0.973
4	2656	122	0.973
4	2687	123	0.973
4	2719	124	1.695327704357
4	2750	125	2.949007722968
4	2781	126	3.4831156587951
4	2812	127	5.266118113631
4	2843	128	6.2956292108017
4	2874	129	8.8394418364491
4	2905	130	1.171420452937
4	2936	131	0.973
4	2967	132	2.277271432432
4	2998	133	4.5271380512404
4	3029	134	1.9244977519783
4	3060	135	1.3165024918669
4	3091	136	1.154683500129
4	3122	137	0.973
4	3141	138	4.4582235678596
4	3160	139	0.973
4	3179	140	0.973
4	3198	141	4.4728948426269
4	3217	142	2.4135055456482
4	3236	143	0.973
4	3255	144	2.4712841630996
4	3274	145	2.2249460048484
4	3293	146	0.973
4	3312	147	4.6834180728166
4	3331	148	0.973
4	3350	149	4.6804262983413
4	3369	150	0.973
4	3388	151	1.6243438442143
4	3407	152	3.4412734095787
4	3426	153	1.8842308383444
4	3445	154	1.8588956774483
4	3464	155	1.5173232412943
4	3483	156	2.7097223441558
4	3502	157	1.8570263126142
4	3521	158	1.1651425671836
4	3540	159	0.973
4	3559	160	2.2151970337707
4	3578	161	0.973
4	3597	162	3.1003836525651
4	3616	163	3.0337743467348
4	3635	164	1.7247509517257
4	3654	165	0.973
4	3673	166	3.8261806235015
4	3692	167	2.6768588307054
4	3711	168	1.3417318799724
4	3730	169	0.973
4	3749	170	3.1228769584736
3	58	3	2.3097215975402
3	77	4	2.1753469938878
3	96	5	1.9198876491515
3	115	6	2.3290013018763
3	134	7	1.4178105275333
3	153	8	-0.37967657484114
3	172	9	-0.26539824760985
3	191	10	-0.28567485553212
3	210	11	0.22627560230903
3	229	12	0.19142821677961
3	248	13	-0.0025797226931914
3	267	14	-0.0040860524866719
3	286	15	0.62818098375574
3	305	16	-0.82864982441533
3	324	17	-0.17134158615954
3	343	18	-3.7706846935517
3	362	19	1.1191589945591
3	381	20	-0.036361847422086
3	400	21	0.11671101350803
3	419	22	1.8430399890523
3	438	23	1.2568465598107
3	457	24	0.2007331083063
3	476	25	0.23401913109701
3	495	26	-3.3476374681553
3	514	27	-4.3725450053462
3	533	28	2.065569831524
3	552	29	1.3205505888676
3	571	30	2.475277706515
3	590	31	0.73923335413944
3	609	32	0.86525854810607
3	628	33	-0.52660172043834
3	647	34	0.3463471259055
3	666	35	-4.5
3	685	36	2.1872653045459
3	704	37	2.0997949530138
3	723	38	0.1034710326866
3	742	39	-0.19733900704887
3	773	40	-0.3612251302693
3	804	41	0.99056635394227
3	835	42	-4.2179038755953
3	866	43	-3.9929810992473
3	897	44	2.2328853990184
3	928	45	2.5772626519203
3	959	46	1.8253652398771
3	990	47	1.765726532121
3	1021	48	-0.20436282765586
3	1052	49	-0.75963758639991
3	1083	50	0.46374235481489
3	1102	51	0.42987335824873
3	1121	52	-0.42290495529305
3	1140	53	-0.27934064946603
3	1159	54	0.24066877767909
3	1178	55	0.56403360827826
3	1197	56	-0.1139339807909
3	1216	57	-1.085014008428
3	1235	58	0.2275443459861
3	1254	59	0.43491504483391
3	1273	60	0.11313430701848
3	1292	61	0.11240000391845
3	1311	62	-0.2018297615461
3	1330	63	0.28388725474942
3	1349	64	-0.80547373222653
3	1368	65	0.51315661247354
3	1387	66	-0.43729765273165
3	1406	67	0.95912287801039
3	1425	68	-0.95442967428826
3	1444	69	0.12886185280513
3	1463	70	-0.26042735723313
3	1482	71	-0.026737399538979
3	1501	72	-0.0079557842342197
3	1520	73	0.34638873778749
3	1540	74	-4.5
3	1559	75	-4.5
3	1578	76	-2.610433347309
3	1597	77	0
3	1616	78	0
3	1635	79	0
3	1654	80	0
3	1673	81	0
3	1692	82	0
3	1711	83	0
3	1730	84	0
3	1749	85	0
3	1768	86	0
3	1787	87	0
3	1806	88	0
3	1837	89	0
3	1868	90	0
3	1899	91	0
3	1930	92	0
3	1961	93	0
3	1992	94	0
3	2023	95	0
3	2054	96	0
3	2085	97	0
3	2116	98	0
3	2135	99	0
3	2154	100	0
3	2173	101	0
3	2192	102	0
3	2211	103	0
3	2230	104	0
3	2249	105	0
3	2268	106	0
3	2287	107	0
3	2306	108	0
3	2325	109	0
3	2344	110	0
3	2363	111	0
3	2382	112	0
3	2401	113	0
3	2420	114	0
3	2439	115	0
3	2470	116	0
3	2501	117	0
3	2532	118	0
3	2563	119	0
3	2594	120	0
3	2625	121	0
3	2656	122	0
3	2687	123	0
3	2719	124	1.4611877845367
3	2750	125	1.9999393696431
3	2781	126	1.6982027534861
3	2812	127	2.1415032495977
3	2843	128	2.0638961436925
3	2874	129	2.4588298490038
3	2905	130	-0.22970810116271
3	2936	131	-0.47188077182509
3	2967	132	0.17944643385708
3	2998	133	0.90438729119487
3	3029	134	0.019008091860451
3	3060	135	-0.1845680948114
3	3091	136	-0.23785096853971
3	3122	137	-0.30908167692833
3	3141	138	0.86543385481928
3	3160	139	-0.79857899972703
3	3179	140	-0.34430311752949
3	3198	141	0.89571916116402
3	3217	142	0.18187282197177
3	3236	143	-0.93367840172723
3	3255	144	0.23543684592005
3	3274	145	0.14122024693061
3	3293	146	-0.38385077011772
3	3312	147	0.94733568220399
3	3331	148	-0.88228736293968
3	3350	149	0.94014076031744
3	3369	150	-0.62219355283305
3	3388	151	-0.069395463983529
3	3407	152	0.53554889645893
3	3426	153	0.0058721822453656
3	3445	154	-0.0026589288609102
3	3464	155	-0.11636837630067
3	3483	156	0.27797175992746
3	3502	157	-0.0079002724494774
3	3521	158	-0.23760560082737
3	3540	159	-0.57156471787021
3	3559	160	0.1397743341513
3	3578	161	-0.39782901199069
3	3597	162	0.45035962976981
3	3616	163	0.40071687819436
3	3635	164	-0.045397029723972
3	3654	165	-0.74409127682448
3	3673	166	0.6808839159552
3	3692	167	0.27020388992969
3	3711	168	-0.17724607402924
3	3730	169	-0.55151819535531
3	3749	170	0.43964645825326
2	39	2	2.05
2	58	3	4.3597215975402
2	77	4	6.535068591428
2	96	5	8.4549562405795
2	115	6	10.783957542456
2	134	7	12.201768069989
2	153	8	11.822091495148
2	172	9	11.556693247538
2	191	10	11.271018392006
2	210	11	11.497293994315
2	229	12	11.688722211095
2	248	13	11.686142488401
2	267	14	11.682056435915
2	286	15	12.31023741967
2	305	16	11.481587595255
2	324	17	11.310246009096
2	343	18	7.5395613155438
2	362	19	8.6587203101029
2	381	20	8.6223584626808
2	400	21	8.7390694761888
2	419	22	10.582109465241
2	438	23	11.838956025052
2	457	24	12.039689133358
2	476	25	12.273708264455
2	495	26	8.9260707962999
2	514	27	4.5535257909537
2	533	28	6.6190956224777
2	552	29	7.9396462113454
2	571	30	10.41492391786
2	590	31	11.154157272
2	609	32	12.019415820106
2	628	33	11.492814099668
2	647	34	11.839161225573
2	666	35	7.3391612255731
2	685	36	9.5264265301189
2	704	37	11.626221483133
2	723	38	11.729692515819
2	742	39	11.53235350877
2	773	40	11.171128378501
2	804	41	12.161694732443
2	835	42	7.9437908568481
2	866	43	3.9508097576008
2	897	44	6.1836951566192
2	928	45	8.7609578085395
2	959	46	10.586323048417
2	990	47	12.352049580538
2	1021	48	12.147686752882
2	1052	49	11.388049166482
2	1083	50	11.851791521297
2	1102	51	12.281664879546
2	1121	52	11.858759924252
2	1140	53	11.579419274786
2	1159	54	11.820088052466
2	1178	55	12.384121660744
2	1197	56	12.270187679953
2	1216	57	11.185173671525
2	1235	58	11.412718017511
2	1254	59	11.847633062345
2	1273	60	11.960767369363
2	1292	61	12.073167373282
2	1311	62	11.871337611736
2	1330	63	12.155224866485
2	1349	64	11.349751134259
2	1368	65	11.862907746732
2	1387	66	11.425610094001
2	1406	67	12.384732972011
2	1425	68	11.430303297723
2	1444	69	11.559165150528
2	1463	70	11.298737793295
2	1482	71	11.272000393756
2	1501	72	11.264044609521
2	1520	73	11.610433347309
2	1540	74	7.110433347309
2	1559	75	2.610433347309
2	1578	76	0
2	1597	77	0
2	1616	78	0
2	1635	79	0
2	1654	80	0
2	1673	81	0
2	1692	82	0
2	1711	83	0
2	1730	84	0
2	1749	85	0
2	1768	86	0
2	1787	87	0
2	1806	88	0
2	1837	89	0
2	1868	90	0
2	1899	91	0
2	1930	92	0
2	1961	93	0
2	1992	94	0
2	2023	95	0
2	2054	96	0
2	2085	97	0
2	2116	98	0
2	2135	99	0
2	2154	100	0
2	2173	101	0
2	2192	102	0
2	2211	103	0
2	2230	104	0
2	2249	105	0
2	2268	106	0
2	2287	107	0
2	2306	108	0
2	2325	109	0
2	2344	110	0
2	2363	111	0
2	2382	112	0
2	2401	113	0
2	2420	114	0
2	2439	115	0
2	2470	116	0
2	2501	117	0
2	2532	118	0
2	2563	119	0
2	2594	120	0
2	2625	121	0
2	2656	122	0
2	2687	123	0
2	2719	124	1.4611877845367
2	2750	125	3.4611271541798
2	2781	126	5.159329907666
2	2812	127	7.3008331572637
2	2843	128	9.3647293009562
2	2874	129	11.82355914996
2	2905	130	11.593851048797
2	2936	131	11.121970276972
2	2967	132	11.301416710829
2	2998	133	12.205804002024
2	3029	134	12.224812093885
2	3060	135	12.040243999073
2	3091	136	11.802393030534
2	3122	137	11.493311353605
2	3141	138	12.358745208424
2	3160	139	11.560166208697
2	3179	140	11.215863091168
2	3198	141	12.111582252332
2	3217	142	12.293455074304
2	3236	143	11.359776672577
2	3255	144	11.595213518497
2	3274	145	11.736433765427
2	3293	146	11.352582995309
2	3312	147	12.299918677513
2	3331	148	11.417631314574
2	3350	149	12.357772074891
2	3369	150	11.735578522058
2	3388	151	11.666183058075
2	3407	152	12.201731954534
2	3426	153	12.207604136779
2	3445	154	12.204945207918
2	3464	155	12.088576831617
2	3483	156	12.366548591545
2	3502	157	12.358648319095
2	3521	158	12.121042718268
2	3540	159	11.549478000398
2	3559	160	11.689252334549
2	3578	161	11.291423322558
2	3597	162	11.741782952328
2	3616	163	12.142499830523
2	3635	164	12.097102800799
2	3654	165	11.353011523974
2	3673	166	12.033895439929
2	3692	167	12.304099329859
2	3711	168	12.12685325583
2	3730	169	11.575335060474
2	3749	170	12.014981518728
1	20	1	280.98021276596
1	39	2	279.39186798702
1	58	3	275.98552974236
1	77	4	271.03637422808
1	96	5	265.77913215113
1	115	6	254.51231138095
1	134	7	243.74735282511
1	153	8	231.34436658933
1	172	9	222.09211866103
1	191	10	216.55257854713
1	210	11	218.5057636042
1	229	12	218.89041808324
1	248	13	226.60482104431
1	267	14	237.72772605284
1	286	15	250.76102753219
1	305	16	262.02267999212
1	324	17	269.83126903333
1	343	18	275.93044591954
1	362	19	284.41988925514
1	381	20	292.95699058393
1	400	21	297.77221326312
1	419	22	298.53541197294
1	438	23	299.3892564728
1	457	24	300.25757816644
1	476	25	301.14277769522
1	495	26	301.78654023971
1	514	27	302.11494782425
1	533	28	302.81588878568
1	552	29	303.68461665363
1	571	30	305.08298316798
1	590	31	306.61487014617
1	609	32	308.26558979548
1	628	33	309.84398714391
1	647	34	311.46995103091
1	666	35	312.47789499639
1	685	36	313.77379807212
1	704	37	315.34291465208
1	723	38	316.91219745383
1	742	39	318.45507882098
1	773	40	319.94963288682
1	804	41	321.57671205859
1	835	42	322.63948965106
1	866	43	323.16805745429
1	897	44	325.1092587292
1	928	45	332.09787811659
1	959	46	342.18308120035
1	990	47	354.01615526756
1	1021	48	365.65345287997
1	1052	49	376.56302933442
1	1083	50	387.91686385283
1	1102	51	399.6825104559
1	1121	52	411.04302059747
1	1140	53	422.13592668082
1	1159	54	433.4593897623
1	1178	55	445.32318839048
1	1197	56	457.09012430032
1	1216	57	467.84538421266
1	1235	58	478.81944256787
1	1254	59	490.21169955677
1	1273	60	501.71274241818
1	1292	61	513.32186507269
1	1311	62	524.73691550202
1	1330	63	536.42494168482
1	1349	64	547.33845335429
1	1368	65	558.74539792923
1	1387	66	569.73185284059
1	1406	67	581.64056574667
1	1425	68	592.61055469369
1	1444	69	603.68431784154
1	1463	70	614.50858971267
1	1482	71	625.30987465757
1	1501	72	636.12934403233
1	1520	73	647.28153069206
1	1540	74	654.11132571769
1	1559	75	656.6187291092
1	1578	76	656.6187291092
1	1597	77	656.6187291092
1	1616	78	656.6187291092
1	1635	79	656.6187291092
1	1654	80	656.6187291092
1	1673	81	656.6187291092
1	1692	82	656.6187291092
1	1711	83	656.6187291092
1	1730	84	656.6187291092
1	1749	85	656.6187291092
1	1768	86	656.6187291092
1	1787	87	656.6187291092
1	1806	88	656.6187291092
1	1837	89	656.6187291092
1	1868	90	656.6187291092
1	1899	91	656.6187291092
1	1930	92	656.6187291092
1	1961	93	656.6187291092
1	1992	94	656.6187291092
1	2023	95	656.6187291092
1	2054	96	656.6187291092
1	2085	97	656.6187291092
1	2116	98	656.6187291092
1	2135	99	656.6187291092
1	2154	100	656.6187291092
1	2173	101	656.6187291092
1	2192	102	656.6187291092
1	2211	103	656.6187291092
1	2230	104	656.6187291092
1	2249	105	656.6187291092
1	2268	106	656.6187291092
1	2287	107	656.6187291092
1	2306	108	656.6187291092
1	2325	109	656.6187291092
1	2344	110	656.6187291092
1	2363	111	656.6187291092
1	2382	112	656.6187291092
1	2401	113	656.6187291092
1	2420	114	656.6187291092
1	2439	115	656.6187291092
1	2470	116	656.6187291092
1	2501	117	656.6187291092
1	2532	118	656.6187291092
1	2563	119	656.6187291092
1	2594	120	656.6187291092
1	2625	121	656.6187291092
1	2656	122	656.6187291092
1	2687	123	656.6187291092
1	2719	124	658.02224596603
1	2750	125	661.34676753399
1	2781	126	666.30246629633
1	2812	127	673.3151463321
1	2843	128	682.31093949306
1	2874	129	693.7061714368
1	2905	130	704.88001682012
1	2936	131	715.59907606193
1	2967	132	726.47165028109
1	2998	133	738.2027240022
1	3029	134	749.95206651796
1	3060	135	761.52401949622
1	3091	136	772.86737243748
1	3122	137	783.86635327001
1	3141	138	795.60977244484
1	3160	139	806.59437284156
1	3179	140	817.32608697857
1	3198	141	828.95383685984
1	3217	142	840.75619412436
1	3236	143	851.66217148586
1	3255	144	862.79418048386
1	3274	145	874.06176827539
1	3293	146	884.94886216392
1	3312	147	896.74213614238
1	3331	148	907.6894649669
1	3350	149	919.53820930933
1	3369	150	930.7972728768
1	3388	151	941.99081277389
1	3407	152	953.69820436604
1	3426	153	965.41123023513
1	3445	154	977.13156692075
1	3464	155	988.75456250934
1	3483	156	1000.6264331484
1	3502	157	1012.4896818675
1	3521	158	1024.1093614938
1	3540	159	1035.1601393743
1	3559	160	1046.3446562099
1	3578	161	1057.2125824289
1	3597	162	1068.5410911302
1	3616	163	1080.2562127216
1	3635	164	1091.9334217474
1	3654	165	1102.9032179711
1	3673	166	1114.5309152102
1	3692	167	1126.3670786403
1	3711	168	1138.0320820782
1	3730	169	1149.126383249
1	3749	170	1160.6156265895
0	20	1	730.64574468085
0	39	2	731.91854398719
0	58	3	734.47089884094
0	77	4	738.47401719297
0	96	5	745.08956637917
0	115	6	748.55689486082
0	134	7	750.51319690309
0	153	8	750.72440634757
0	172	9	743.58036633033
0	191	10	733.69284185119
0	210	11	721.49716699214
0	229	12	709.5144474009
0	248	13	700.39754690664
0	267	14	695.44359563931
0	286	15	695.13728071004
0	305	16	699.92148834731
0	324	17	708.4950955849
0	343	18	712.24012915793
0	362	19	712.83692423902
0	381	20	713.22633749033
0	400	21	706.91131971539
0	419	22	696.35658957606
0	438	23	684.54826474383
0	457	24	672.5397261645
0	476	25	660.29777393695
0	495	26	651.39479776108
0	514	27	646.85305340814
0	533	28	640.27134975916
0	552	29	632.37908870425
0	571	30	622.05913348195
0	590	31	611.01102992382
0	609	32	599.10589469482
0	628	33	587.72235425774
0	647	34	575.9957597628
0	666	35	568.7263792733
0	685	36	559.28545867001
0	704	37	547.76149963624
0	723	38	536.13766406681
0	742	39	524.70938657926
0	773	40	513.63907427383
0	804	41	501.58713517783
0	835	42	493.71503464379
0	866	43	489.79987975575
0	897	44	484.02704836458
0	928	45	479.04431273183
0	959	46	475.84691730532
0	990	47	472.30390346868
0	1021	48	468.8195082703
0	1052	49	465.55300456125
0	1083	50	462.1534827997
0	1102	51	458.63065783681
0	1121	52	455.22913728566
0	1140	53	451.90774171942
0	1159	54	448.51731365749
0	1178	55	444.96510039017
0	1197	56	441.48756756671
0	1216	57	438.41613605461
0	1235	58	435.28222121457
0	1254	59	432.02887937115
0	1273	60	428.74447102078
0	1292	61	425.42919780195
0	1311	62	422.16934672568
0	1330	63	418.83154064524
0	1349	64	415.71491641463
0	1368	65	412.45738016634
0	1387	66	409.31992518189
0	1406	67	405.91909652815
0	1425	68	402.70861575702
0	1444	69	399.39389897006
0	1463	70	396.15386257061
0	1482	71	392.93041692443
0	1501	72	389.79688894289
0	1520	73	386.56699958849
0	1540	74	384.58895860702
0	1559	75	383.86276599848
0	1578	76	383.86276599848
0	1597	77	383.86276599848
0	1616	78	383.86276599848
0	1635	79	383.86276599848
0	1654	80	383.86276599848
0	1673	81	383.86276599848
0	1692	82	383.86276599848
0	1711	83	383.86276599848
0	1730	84	383.86276599848
0	1749	85	383.86276599848
0	1768	86	383.86276599848
0	1787	87	383.86276599848
0	1806	88	383.86276599848
0	1837	89	383.86276599848
0	1868	90	383.86276599848
0	1899	91	383.86276599848
0	1930	92	383.86276599848
0	1961	93	383.86276599848
0	1992	94	383.86276599848
0	2023	95	383.86276599848
0	2054	96	383.86276599848
0	2085	97	383.86276599848
0	2116	98	383.86276599848
0	2135	99	383.86276599848
0	2154	100	383.86276599848
0	2173	101	383.86276599848
0	2192	102	383.86276599848
0	2211	103	383.86276599848
0	2230	104	383.86276599848
0	2249	105	383.86276599848
0	2268	106	383.86276599848
0	2287	107	383.86276599848
0	2306	108	383.86276599848
0	2325	109	383.86276599848
0	2344	110	383.86276599848
0	2363	111	383.86276599848
0	2382	112	383.86276599848
0	2401	113	383.86276599848
0	2420	114	383.86276599848
0	2439	115	383.86276599848
0	2470	116	383.86276599848
0	2501	117	383.86276599848
0	2532	118	383.86276599848
0	2563	119	383.86276599848
0	2594	120	383.86276599848
0	2625	121	383.86276599848
0	2656	122	383.86276599848
0	2687	123	383.86276599848
0	2719	124	383.45628032056
0	2750	125	382.49343445469
0	2781	126	381.05816806573
0	2812	127	379.02716004153
0	2843	128	376.42438666065
0	2874	129	373.27056711305
0	2905	130	370.17801997002
0	2936	131	367.21134243896
0	2967	132	364.12791135111
0	2998	133	360.75671180159
0	3029	134	357.38026228487
0	3060	135	354.05478981791
0	3091	136	350.79501094048
0	3122	137	347.46676285311
0	3141	138	343.61550969591
0	3160	139	340.01311108195
0	3179	140	336.75789206308
0	3198	141	333.36860583378
0	3217	142	329.92842459852
0	3236	143	326.74952246649
0	3255	144	323.50473605582
0	3274	145	320.2204307922
0	3293	146	317.00278581819
0	3312	147	313.50877148925
0	3331	148	310.26538684082
0	3350	149	306.75493820816
0	3369	150	303.44457302858
0	3388	151	300.15735624868
0	3407	152	296.71923618618
0	3426	153	293.27946150057
0	3445	154	289.87446969207
0	3464	155	286.55166036498
0	3483	156	283.0887963342
0	3502	157	279.62455330698
0	3521	158	276.17492367221
0	3540	159	272.81753974566
0	3559	160	269.41952401716
0	3578	161	266.35948298278
0	3597	162	263.27149385079
0	3616	163	260.07811958523
0	3635	164	256.91851809177
0	3654	165	253.99350955727
0	3673	166	250.89307697242
0	3692	167	247.53215053561
0	3711	168	244.21708316492
0	3730	169	240.9165740385
0	3749	170	237.40111534245
vector 63 RSUExampleScenario.node[12].veinsmobility acceleration ETV
vector 64 RSUExampleScenario.node[12].veinsmobility co2emission ETV
29	1673	81	6.6881035370414
29	1692	82	1.1707910712986
29	1711	83	1.8695862833208
29	1730	84	4.9553200317769
29	1749	85	1.8057713724366
29	1768	86	4.7438686150596
29	1787	87	0.973
29	1806	88	5.6172065714488
29	1837	89	0.973
29	1868	90	5.1222181852268
29	1899	91	1.569139607216
29	1930	92	5.2886202616227
29	1961	93	0.973
29	1992	94	8.0202258998943
29	2023	95	0.973
29	2054	96	4.9918741338344
29	2085	97	1.1795425377774
29	2116	98	3.2280120618965
29	2135	99	2.7151485687848
29	2154	100	0.973
29	2173	101	7.0715933618916
29	2192	102	0.973
29	2211	103	3.6141260643563
29	2230	104	1.9082514366374
29	2249	105	6.7697514729518
29	2268	106	2.5687935182336
29	2287	107	2.0000052193868
29	2306	108	0.973
29	2325	109	1.7289396927523
29	2344	110	4.6243094786804
29	2363	111	5.666901059698
29	2382	112	2.4117367347179
29	2401	113	3.3009144315868
29	2420	114	0.973
29	2439	115	4.4625578946812
29	2470	116	4.9320215880616
29	2501	117	0.973
29	2532	118	2.2440928346953
29	2563	119	2.5516419559577
29	2594	120	7.0223857984082
29	2625	121	0.973
29	2656	122	7.7521546016369
29	2687	123	0.973
29	2719	124	4.3188019833107
29	2750	125	0.973
29	2781	126	4.8391763115687
29	2812	127	2.1907724181921
29	2843	128	2.3811662152705
29	2874	129	3.6306669331265
29	2905	130	2.1982258777618
29	2936	131	1.3249814935425
29	2967	132	2.4835209863886
29	2998	133	5.5171921705654
29	3029	134	0.973
29	3060	135	5.7853698591608
29	3091	136	0.973
29	3122	137	2.5850631346807
29	3141	138	8.0389720459037
29	3160	139	0.973
29	3179	140	3.5974766947023
29	3198	141	6.5338278212201
29	3217	142	1.0370045328856
29	3236	143	1.1097447812668
29	3255	144	2.4137949197619
29	3274	145	2.0710450339668
29	3293	146	2.8591048650531
29	3312	147	0.79187912759103
29	3331	148	3.7165363749272
29	3350	149	2.5144420298908
29	3369	150	6.4897119817269
29	3388	151	0.973
29	3407	152	0.973
29	3426	153	7.8122104669998
29	3445	154	1.6829431531865
29	3464	155	3.0988594103938
29	3483	156	0.973
29	3502	157	7.533215608662
29	3521	158	0.973
29	3540	159	2.5822755279845
29	3559	160	1.0572841930732
29	3578	161	5.0926641485341
29	3597	162	0.973
29	3616	163	6.3814997407734
29	3635	164	1.1304618632346
29	3654	165	5.5942911975399
29	3673	166	0.973
29	3692	167	0.973
29	3711	168	0.973
29	3730	169	9.2178464398769
29	3749	170	4.1133212369967
29	3780	171	1.695741036003
29	3811	172	1.9174627806839
28	1673	81	0.88981759718154
28	1692	82	-0.31851076858584
28	1711	83	-0.15851543333847
28	1730	84	0.50704208416864
28	1749	85	-0.18029856204521
28	1768	86	0.4457036151085
28	1787	87	-1.1439517272636
28	1806	88	0.66661782586016
28	1837	89	-0.61122239336837
28	1868	90	0.55990884364583
28	1899	91	-0.22662860448472
28	1930	92	0.57486947439611
28	1961	93	-0.99564108802006
28	1992	94	1.1567819823045
28	2023	95	-0.74193504680879
28	2054	96	0.513983797119
28	2085	97	-0.3172986012185
28	2116	98	0.13431783120614
28	2135	99	0.020071237231605
28	2154	100	-0.75881938438397
28	2173	101	0.9663736609742
28	2192	102	-0.74298301520757
28	2211	103	0.23236447153613
28	2230	104	-0.14767969979439
28	2249	105	0.88257665948477
28	2268	106	-0.025068038515744
28	2287	107	-0.14464260425884
28	2306	108	-0.81973507932853
28	2325	109	-0.18205153050367
28	2344	110	0.45827460216824
28	2363	111	0.64838647705037
28	2382	112	-0.056248415447769
28	2401	113	0.1320351333823
28	2420	114	-1.2117495741229
28	2439	115	0.42537009036168
28	2470	116	0.50117095555179
28	2501	117	-0.74748488077894
28	2532	118	-0.065784376696683
28	2563	119	0.0045697021763758
28	2594	120	0.94822271210142
28	2625	121	-1.0619614062831
28	2656	122	1.1034006661968
28	2687	123	-0.61022211126983
28	2719	124	0.36972846959252
28	2750	125	-0.47058931656647
28	2781	126	0.48349940916523
28	2812	127	-0.09632847884204
28	2843	128	-0.052693938068117
28	2874	129	0.21484298473224
28	2905	130	-0.096466542920098
28	2936	131	-0.28402733255643
28	2967	132	-0.024175342754461
28	2998	133	0.61462791806552
28	3029	134	-0.91350067083258
28	3060	135	0.68811745494604
28	3091	136	-0.83558610728942
28	3122	137	0.012572204438037
28	3141	138	1.1516520448728
28	3160	139	-1.0891717872582
28	3179	140	0.23149889376946
28	3198	141	0.82930364252534
28	3217	142	-0.35264780116268
28	3236	143	-0.33189215033781
28	3255	144	-0.038776576914824
28	3274	145	-0.11275651021861
28	3293	146	0.062896050116979
28	3312	147	-0.39815186755732
28	3331	148	0.26205776487477
28	3350	149	-0.010056691942737
28	3369	150	0.82676088945009
28	3388	151	-0.50017457439099
28	3407	152	-0.48505048775114
28	3426	153	1.1030446935212
28	3445	154	-0.21404318383429
28	3464	155	0.091290987096727
28	3483	156	-0.96280311825685
28	3502	157	1.0462965754559
28	3521	158	-0.58626717543229
28	3540	159	-0.0047592699527748
28	3559	160	-0.34012844462413
28	3578	161	0.54242268593516
28	3597	162	-0.7591220148839
28	3616	163	0.82187691298313
28	3635	164	-0.32750063547864
28	3654	165	0.62896227646521
28	3673	166	-4.5
28	3692	167	-4.5
28	3711	168	-0.62211527682306
28	3730	169	2.5276067882543
28	3749	170	0.71094237675766
28	3780	171	-0.071235511312262
28	3811	172	0.0010322732385255
27	1654	80	17.981589371603
27	1673	81	18.871406968784
27	1692	82	18.552896200198
27	1711	83	18.39438076686
27	1730	84	18.901422851029
27	1749	85	18.721124288983
27	1768	86	19.166827904092
27	1787	87	18.022876176828
27	1806	88	18.689494002688
27	1837	89	18.07827160932
27	1868	90	18.638180452966
27	1899	91	18.411551848481
27	1930	92	18.986421322877
27	1961	93	17.990780234857
27	1992	94	19.147562217162
27	2023	95	18.405627170353
27	2054	96	18.919610967472
27	2085	97	18.602312366253
27	2116	98	18.73663019746
27	2135	99	18.756701434691
27	2154	100	17.997882050307
27	2173	101	18.964255711281
27	2192	102	18.221272696074
27	2211	103	18.45363716761
27	2230	104	18.305957467816
27	2249	105	19.1885341273
27	2268	106	19.163466088785
27	2287	107	19.018823484526
27	2306	108	18.199088405197
27	2325	109	18.017036874694
27	2344	110	18.475311476862
27	2363	111	19.123697953912
27	2382	112	19.067449538464
27	2401	113	19.199484671847
27	2420	114	17.987735097724
27	2439	115	18.413105188085
27	2470	116	18.914276143637
27	2501	117	18.166791262858
27	2532	118	18.101006886162
27	2563	119	18.105576588338
27	2594	120	19.053799300439
27	2625	121	17.991837894156
27	2656	122	19.095238560353
27	2687	123	18.485016449083
27	2719	124	18.854744918676
27	2750	125	18.384155602109
27	2781	126	18.867655011275
27	2812	127	18.771326532433
27	2843	128	18.718632594364
27	2874	129	18.933475579097
27	2905	130	18.837009036177
27	2936	131	18.55298170362
27	2967	132	18.528806360866
27	2998	133	19.143434278931
27	3029	134	18.229933608099
27	3060	135	18.918051063045
27	3091	136	18.082464955755
27	3122	137	18.095037160193
27	3141	138	19.246689205066
27	3160	139	18.157517417808
27	3179	140	18.389016311577
27	3198	141	19.218319954103
27	3217	142	18.86567215294
27	3236	143	18.533780002602
27	3255	144	18.495003425687
27	3274	145	18.382246915469
27	3293	146	18.445142965586
27	3312	147	18.046991098028
27	3331	148	18.309048862903
27	3350	149	18.29899217096
27	3369	150	19.12575306041
27	3388	151	18.62557848602
27	3407	152	18.140527998268
27	3426	153	19.24357269179
27	3445	154	19.029529507955
27	3464	155	19.120820495052
27	3483	156	18.158017376795
27	3502	157	19.204313952251
27	3521	158	18.618046776819
27	3540	159	18.613287506866
27	3559	160	18.273159062242
27	3578	161	18.815581748177
27	3597	162	18.056459733293
27	3616	163	18.878336646276
27	3635	164	18.550836010798
27	3654	165	19.179798287263
27	3673	166	14.679798287263
27	3692	167	10.179798287263
27	3711	168	9.5576830104398
27	3730	169	12.085289798694
27	3749	170	12.796232175452
27	3780	171	12.72499666414
27	3811	172	12.726028937378
26	1635	79	811.69393771003
26	1654	80	820.31077777896
26	1673	81	828.7233500538
26	1692	82	836.20609822687
26	1711	83	842.00755013007
26	1730	84	846.14705911919
26	1749	85	847.69142356626
26	1768	86	847.72343266693
26	1787	87	847.31749416104
26	1806	88	846.92418640042
26	1837	89	844.34073992087
26	1868	90	846.62059886165
26	1899	91	849.58884612604
26	1930	92	854.18403777507
26	1961	93	858.50092073795
26	1992	94	862.55316868213
26	2023	95	865.50788198313
26	2054	96	867.49298003407
26	2085	97	869.27443329808
26	2116	98	868.65311729074
26	2135	99	865.35120445013
26	2154	100	859.69862564064
26	2173	101	852.44027282814
26	2192	102	844.20361510371
26	2211	103	835.70001567033
26	2230	104	827.18278750425
26	2249	105	818.03769332727
26	2268	106	808.78080018716
26	2287	107	799.59377651246
26	2306	108	790.80272504851
26	2325	109	782.0996133944
26	2344	110	773.17513265176
26	2363	111	763.93744946945
26	2382	112	754.72665763678
26	2401	113	745.44542013034
26	2420	114	736.74995540832
26	2439	115	727.56689911471
26	2470	116	718.37367065298
26	2501	117	709.65311732848
26	2532	118	700.96414229188
26	2563	119	692.27297367411
26	2594	120	683.12663239514
26	2625	121	674.49006144039
26	2656	122	665.25331143899
26	2687	123	656.28109211514
26	2719	124	647.12941474598
26	2750	125	638.20615105291
26	2781	126	629.04820740951
26	2812	127	619.93701948537
26	2843	128	610.93204067581
26	2874	129	601.84381562137
26	2905	130	592.80189530631
26	2936	131	583.89631046273
26	2967	132	575.00232998385
26	2998	133	565.81332301495
26	3029	134	557.06280393218
26	3060	135	547.98198277316
26	3091	136	539.30224986462
26	3122	137	530.61648219384
26	3141	138	521.3779120054
26	3160	139	512.66215329361
26	3179	140	503.83527319591
26	3198	141	494.61032048284
26	3217	142	485.55464163439
26	3236	143	476.17405530202
26	3255	144	466.20015750383
26	3274	145	456.28706650212
26	3293	146	445.87527397146
26	3312	147	434.45285641778
26	3331	148	422.35154252657
26	3350	149	410.20876744874
26	3369	150	396.33441627115
26	3388	151	382.40595797848
26	3407	152	368.20852874039
26	3426	153	352.63487371322
26	3445	154	337.01427260136
26	3464	155	321.31873426659
26	3483	156	306.95819179065
26	3502	157	292.81005442199
26	3521	158	280.50182630057
26	3540	159	268.91415826227
26	3559	160	259.58281549434
26	3578	161	251.53193213807
26	3597	162	244.80542609013
26	3616	163	239.76932846157
26	3635	164	235.27699040021
26	3654	165	231.91700982103
26	3673	166	229.20243996962
26	3692	167	227.14931153065
26	3711	168	225.42510462107
26	3730	169	220.97097791244
26	3749	170	215.92657717057
26	3780	171	216.08076734972
26	3811	172	221.91073187521
25	1635	79	2182.8197270944
25	1654	80	2167.0231726509
25	1673	81	2150.1255334218
25	1692	82	2133.1492523624
25	1711	83	2115.6966451255
25	1730	84	2097.2585917435
25	1749	85	2078.6209838445
25	1768	86	2059.4486305125
25	1787	87	2041.4186918294
25	1806	88	2022.7237421798
25	1837	89	2003.3259204492
25	1868	90	1984.8507966351
25	1899	91	1966.6929272196
25	1930	92	1948.2855761978
25	1961	93	1930.8331834643
25	1992	94	1912.135692296
25	2023	95	1894.0033361511
25	2054	96	1875.201250245
25	2085	97	1856.7052965706
25	2116	98	1838.0219513582
25	2135	99	1819.6172843847
25	2154	100	1802.5755560806
25	2173	101	1785.0699117717
25	2192	102	1768.8367398966
25	2211	103	1752.4735345622
25	2230	104	1736.2839171738
25	2249	105	1719.4308574537
25	2268	106	1702.66652178
25	2287	107	1686.0287204795
25	2306	108	1670.1080292242
25	2325	109	1654.3465979355
25	2344	110	1638.1842647835
25	2363	111	1621.4547185554
25	2382	112	1604.7745331881
25	2401	113	1587.9825252976
25	2420	114	1572.250322332
25	2439	115	1556.3052867742
25	2470	116	1539.7915104576
25	2501	117	1523.8688835376
25	2532	118	1508.0039145756
25	2563	119	1492.1349404119
25	2594	120	1475.434878564
25	2625	121	1459.6655928245
25	2656	122	1442.9681123449
25	2687	123	1426.8211356884
25	2719	124	1410.3511949175
25	2750	125	1394.2923219285
25	2781	126	1377.8111039719
25	2812	127	1361.414030582
25	2843	128	1345.0185052119
25	2874	129	1328.4237075296
25	2905	130	1311.9134607665
25	2936	131	1295.6521580549
25	2967	132	1279.4120445285
25	2998	133	1262.6332224113
25	3029	134	1246.6550646386
25	3060	135	1230.0737862239
25	3091	136	1214.2248816589
25	3122	137	1198.364957818
25	3141	138	1181.4956349049
25	3160	139	1165.5809484173
25	3179	140	1149.4633579627
25	3198	141	1132.6189001082
25	3217	142	1116.0835307192
25	3236	143	1100.1263779751
25	3255	144	1084.5663089595
25	3274	145	1069.1011033533
25	3293	146	1053.8921543626
25	3312	147	1039.969068862
25	3331	148	1026.2461637543
25	3350	149	1012.5772156261
25	3369	150	999.43212583994
25	3388	151	987.11127980139
25	3407	152	975.8392407252
25	3426	153	964.57222698337
25	3445	154	953.72688498942
25	3464	155	942.82951428
25	3483	156	931.76765673668
25	3502	157	918.82075979397
25	3521	158	904.90152241917
25	3540	159	890.37581254021
25	3559	160	874.67948037627
25	3578	161	857.71533271163
25	3597	162	841.0068005661
25	3616	163	822.82607363338
25	3635	164	804.85714233294
25	3654	165	785.9873537901
25	3673	166	771.57227361879
25	3692	167	761.60882348855
25	3711	168	752.38705697049
25	3730	169	742.33506015681
25	3749	170	730.50079772209
25	3780	171	716.69495994586
25	3811	172	704.80712174975
vector 65 RSUExampleScenario.node[13].veinsmobility posx ETV
vector 66 RSUExampleScenario.node[13].veinsmobility posy ETV
vector 67 RSUExampleScenario.node[13].veinsmobility speed ETV
vector 68 RSUExampleScenario.node[13].veinsmobility acceleration ETV
vector 69 RSUExampleScenario.node[13].veinsmobility co2emission ETV
44	2594	120	4.6342994795447
44	2625	121	0.973
44	2656	122	1.2915774941172
44	2687	123	3.0209576961654
44	2719	124	0.973
44	2750	125	1.6895235195183
44	2781	126	4.6906112167461
44	2812	127	0.973
44	2843	128	1.3546970928401
44	2874	129	3.0923942167151
44	2905	130	2.5848441134792
44	2936	131	0.973
44	2967	132	0.973
44	2998	133	3.2008186215117
44	3029	134	0.973
44	3060	135	3.6948933102418
44	3091	136	0.973
44	3122	137	0.973
44	3141	138	4.6687007540362
44	3160	139	0.973
44	3179	140	1.7777287029505
44	3198	141	1.4435242536918
44	3217	142	3.0829227626078
44	3236	143	0.973
44	3255	144	3.1577712093794
44	3274	145	0.973
44	3293	146	2.5009246619389
44	3312	147	4.1683670999426
44	3331	148	0.973
44	3350	149	4.3572791067614
44	3369	150	0.973
44	3388	151	2.2971633275184
44	3407	152	2.316762383517
44	3426	153	2.466772274548
44	3445	154	0.973
44	3464	155	2.5671769474427
44	3483	156	2.3360565343649
44	3502	157	1.2722825093566
44	3521	158	0.973
44	3540	159	2.447369239724
44	3559	160	0.973
44	3578	161	4.8127542297476
44	3597	162	0.973
44	3616	163	0.973
44	3635	164	2.3748461125593
44	3654	165	2.6411253983223
44	3673	166	0.973
44	3692	167	1.8573962119308
44	3711	168	4.5799848002982
44	3730	169	1.5660942443939
44	3749	170	1.5443233764736
44	3780	171	0.973
44	3811	172	7.1162635628833
44	3842	173	3.5623632798517
44	3885	174	0.973
44	3940	175	4.009910930337
44	3995	176	2.1278904956296
44	4050	177	2.2234266195645
44	4105	178	0.973
44	4160	179	2.3815935460511
44	4215	180	2.7080319992991
44	4270	181	1.7749601830755
44	4325	182	2.5225960126818
44	4368	183	0.973
44	4411	184	4.4513462129717
43	2594	120	1.0193256726488
43	2625	121	-0.41532455701381
43	2656	122	-0.17687683247495
43	2687	123	0.44782987891231
43	2719	124	-0.85470067283604
43	2750	125	-0.013398288236932
43	2781	126	1.0366981144529
43	2812	127	-0.8705957764294
43	2843	128	-0.14606559812091
43	2874	129	0.49976560398936
43	2905	130	0.29182048812509
43	2936	131	-0.38594331205823
43	2967	132	-0.22253543327097
43	2998	133	0.52426421092823
43	3029	134	-0.25023529385216
43	3060	135	0.66885717720725
43	3091	136	-0.50156516365241
43	3122	137	-0.44112337573897
43	3141	138	1.0081546088913
43	3160	139	-1.0709369228221
43	3179	140	0.016303521906957
43	3198	141	-0.11154789419379
43	3217	142	0.49467023501638
43	3236	143	-0.36323463986628
43	3255	144	0.51135110182222
43	3274	145	-0.67149081020616
43	3293	146	0.28920832753647
43	3312	147	0.83780458220281
43	3331	148	-1.1805879893713
43	3350	149	0.93251318393741
43	3369	150	-0.65200168108568
43	3388	151	0.20388384256512
43	3407	152	0.2013462320203
43	3426	153	0.24424280726817
43	3445	154	-0.97178663189989
43	3464	155	0.31863105718512
43	3483	156	0.21809127118904
43	3502	157	-0.18218011616263
43	3521	158	-0.23616219938267
43	3540	159	0.26851371906232
43	3559	160	-0.30519060322549
43	3578	161	1.0754641072592
43	3597	162	-0.26748901281971
43	3616	163	-0.82568052250426
43	3635	164	0.24484681456815
43	3654	165	0.32754681534134
43	3673	166	-0.56664870970417
43	3692	167	0.051414523110724
43	3711	168	0.99663548995741
43	3730	169	-0.085213630902581
43	3749	170	-0.091043836158731
43	3780	171	-3.2203988052206
43	3811	172	2.1747559851734
43	3842	173	0.67892861471142
43	3885	174	-0.44539134667721
43	3940	175	0.80961054775398
43	3995	176	0.11734208734706
43	4050	177	0.14555169981904
43	4105	178	-1.0920890128007
43	4160	179	0.24497887650505
43	4215	180	0.34847852413077
43	4270	181	0.00042260310146958
43	4325	182	0.26475311943796
43	4368	183	-0.68314506600145
43	4411	184	0.93849248790648
42	2563	119	10.492718497835
42	2594	120	11.512044170484
42	2625	121	11.096719613471
42	2656	122	10.919842780996
42	2687	123	11.367672659908
42	2719	124	10.512971987072
42	2750	125	10.499573698835
42	2781	126	11.536271813288
42	2812	127	10.665676036858
42	2843	128	10.519610438737
42	2874	129	11.019376042727
42	2905	130	11.311196530852
42	2936	131	10.925253218794
42	2967	132	10.702717785523
42	2998	133	11.226981996451
42	3029	134	10.976746702599
42	3060	135	11.645603879806
42	3091	136	11.144038716154
42	3122	137	10.702915340415
42	3141	138	11.711069949306
42	3160	139	10.640133026484
42	3179	140	10.656436548391
42	3198	141	10.544888654197
42	3217	142	11.039558889213
42	3236	143	10.676324249347
42	3255	144	11.187675351169
42	3274	145	10.516184540963
42	3293	146	10.8053928685
42	3312	147	11.643197450702
42	3331	148	10.462609461331
42	3350	149	11.395122645269
42	3369	150	10.743120964183
42	3388	151	10.947004806748
42	3407	152	11.148351038768
42	3426	153	11.392593846037
42	3445	154	10.420807214137
42	3464	155	10.739438271322
42	3483	156	10.957529542511
42	3502	157	10.775349426348
42	3521	158	10.539187226965
42	3540	159	10.807700946028
42	3559	160	10.502510342802
42	3578	161	11.577974450061
42	3597	162	11.310485437242
42	3616	163	10.484804914738
42	3635	164	10.729651729306
42	3654	165	11.057198544647
42	3673	166	10.490549834943
42	3692	167	10.541964358054
42	3711	168	11.538599848011
42	3730	169	11.453386217108
42	3749	170	11.36234238095
42	3780	171	8.1419435757291
42	3811	172	10.316699560902
42	3842	173	10.995628175614
42	3885	174	10.550236828937
42	3940	175	11.359847376691
42	3995	176	11.477189464038
42	4050	177	11.622741163857
42	4105	178	10.530652151056
42	4160	179	10.775631027561
42	4215	180	11.124109551692
42	4270	181	11.124532154793
42	4325	182	11.389285274231
42	4368	183	10.70614020823
42	4411	184	11.644632696136
41	2532	118	836.7059994293
41	2563	119	826.63710328879
41	2594	120	815.59005412404
41	2625	121	804.94155370811
41	2656	122	794.4627857077
41	2687	123	783.55427659297
41	2719	124	773.46594504307
41	2750	125	763.39047059716
41	2781	126	752.32017239363
41	2812	127	742.08530482279
41	2843	128	731.99060296187
41	2874	129	721.41632205171
41	2905	130	710.56200787969
41	2936	131	700.07804798012
41	2967	132	689.8076348526
41	2998	133	679.03413361772
41	3029	134	668.50076016146
41	3060	135	657.32554603717
41	3091	136	646.63370418692
41	3122	137	636.37707884179
41	3141	138	625.15433690278
41	3160	139	614.95787597565
41	3179	140	604.74579135061
41	3198	141	594.64060329743
41	3217	142	584.0613717609
41	3236	143	573.83022871194
41	3255	144	563.10905687136
41	3274	145	553.03137602775
41	3293	146	542.63371162786
41	3312	147	531.41372770555
41	3331	148	521.33141909243
41	3350	149	510.35049281218
41	3369	150	499.99786888701
41	3388	151	489.44877200455
41	3407	152	478.70564753683
41	3426	153	467.72715813758
41	3445	154	457.68513231992
41	3464	155	447.33031677056
41	3483	156	436.73973508179
41	3502	157	426.32523262647
41	3521	158	416.13898372543
41	3540	159	405.69321314433
41	3559	160	395.54241288492
41	3578	161	384.35216386682
41	3597	162	373.42044613811
41	3616	163	363.28675838399
41	3635	164	352.91642329245
41	3654	165	342.22951033623
41	3673	166	332.0902700489
41	3692	167	321.90133701788
41	3711	168	310.74914401759
41	3730	169	299.92073689978
41	3749	170	289.91834182157
41	3780	171	283.34309904621
41	3811	172	275.30474812838
41	3842	173	267.75243180907
41	3885	174	259.71188585636
41	3940	175	248.25884237651
41	3995	176	235.93615025299
41	4050	177	225.23030232062
41	4105	178	218.24544127298
41	4160	179	215.47011946933
41	4215	180	216.22493176728
41	4270	181	221.36730502442
41	4325	182	230.40090483874
41	4368	183	241.19726007397
41	4411	184	253.52189786553
40	2532	118	565.71467961936
40	2563	119	568.66638341945
40	2594	120	571.90483344857
40	2625	121	575.02644863899
40	2656	122	578.09830665555
40	2687	123	581.29614357412
40	2719	124	584.25354487778
40	2750	125	587.20717711261
40	2781	126	590.45244261337
40	2812	127	593.45280105195
40	2843	128	596.41206981666
40	2874	129	599.51192750813
40	2905	130	602.69387714212
40	2936	131	605.76725716747
40	2967	132	608.77803581033
40	2998	133	611.93629507645
40	3029	134	615.02416071979
40	3060	135	618.30018239458
40	3091	136	621.44209801543
40	3122	137	624.50020839441
40	3141	138	627.84637562285
40	3160	139	630.88654740849
40	3179	140	633.93137754822
40	3198	141	636.94433545856
40	3217	142	640.09863394123
40	3236	143	643.14914653129
40	3255	144	646.34576586535
40	3274	145	649.35052223958
40	3293	146	652.28900277194
40	3312	147	655.39925157984
40	3331	148	658.1941297688
40	3350	149	661.23811032254
40	3369	150	664.10792158474
40	3388	151	667.0321963636
40	3407	152	670.01025678688
40	3426	153	673.05356182217
40	3445	154	675.83727337155
40	3464	155	678.68494443134
40	3483	156	681.49651746684
40	3502	157	684.26134523004
40	3521	158	686.96557655412
40	3540	159	689.73870533627
40	3559	160	692.43352580381
40	3578	161	695.40429769571
40	3597	162	698.30643505709
40	3616	163	700.9967125203
40	3635	164	703.74981479261
40	3654	165	706.58696172028
40	3673	166	709.27871326236
40	3692	167	711.98365716557
40	3711	168	714.94432599829
40	3730	169	718.6172304712
40	3749	170	723.96998311536
40	3780	171	728.74591486944
40	3811	172	734.95559832511
40	3842	173	742.55028154801
40	3885	174	749.54592459721
40	3940	175	753.50102323613
40	3995	176	752.45011514591
40	4050	177	746.94720910406
40	4105	178	738.74913773227
40	4160	179	727.91685021333
40	4215	180	715.84580652683
40	4270	181	705.4592339707
40	4325	182	698.06464039269
40	4368	183	694.55900214384
40	4411	184	695.74390912235
39	2287	107	0.973
39	2306	108	0.973
39	2325	109	2.7917514640014
39	2344	110	2.2424805338437
39	2363	111	0.973
39	2382	112	1.8893398717986
39	2401	113	0.973
39	2420	114	5.4027136590581
39	2439	115	4.0394515291324
39	2470	116	0.973
39	2501	117	0.973
39	2532	118	0.973
39	2563	119	0.973
39	2594	120	1.6149167699288
39	2625	121	2.7565662934097
39	2656	122	4.7954244118185
39	2687	123	5.5101431279428
39	2719	124	3.070317283951
39	2750	125	0.973
39	2781	126	2.3893767843918
39	2812	127	0.973
39	2843	128	1.975348454137
39	2874	129	2.5263044792891
39	2905	130	0.973
39	2936	131	2.7531667821486
39	2967	132	2.2010831276056
39	2998	133	0.973
39	3029	134	3.6009612662345
39	3060	135	0.973
39	3091	136	0.973
39	3122	137	0.973
39	3141	138	0.973
39	3160	139	1.6521337577419
39	3179	140	0.973
39	3198	141	2.255959073889
39	3217	142	4.1061500546347
39	3236	143	5.9254519649804
39	3255	144	5.9956560506118
39	3274	145	0.973
39	3293	146	3.8027360079503
39	3312	147	0.973
39	3331	148	1.7695173768707
39	3350	149	0.973
39	3369	150	0.973
39	3388	151	0.973
39	3407	152	1.6518231362123
39	3426	153	2.3904488565202
39	3445	154	2.5313201214171
39	3464	155	0.973
39	3483	156	0.973
39	3502	157	0.973
39	3521	158	2.3195179608573
39	3540	159	1.6335462203674
39	3559	160	0.973
39	3578	161	0.973
39	3597	162	2.800048726378
39	3616	163	4.895370341663
39	3635	164	0.973
39	3654	165	2.4009117410471
39	3673	166	1.8198067443426
39	3692	167	0.973
39	3711	168	2.2350310601339
39	3730	169	0.973
39	3749	170	0.973
39	3780	171	2.6065429608796
39	3811	172	0.973
39	3842	173	3.5853404646926
39	3885	174	2.9425314216063
39	3940	175	1.6077926564649
39	3995	176	0.973
39	4050	177	2.7721691160653
39	4105	178	2.5179210505026
39	4160	179	0.973
39	4215	180	2.2878147211008
39	4270	181	1.9744989496796
39	4325	182	0.973
39	4368	183	2.7706478420789
39	4411	184	0.973
39	4454	185	3.180048591128
39	4497	186	1.8137064394937
39	4528	187	0.973
39	4559	188	3.6363130874132
38	2287	107	-0.43281500854064
38	2306	108	-0.43001593861263
38	2325	109	0.45305881777313
38	2344	110	0.21554645565339
38	2363	111	-0.60888284107205
38	2382	112	0.093745092116897
38	2401	113	-4.5
38	2420	114	2.1691194649087
38	2439	115	1.1796774215633
38	2470	116	-0.19634001890663
38	2501	117	-1.5232603754838
38	2532	118	-0.83839438797017
38	2563	119	-0.48991934263613
38	2594	120	0.15252417805605
38	2625	121	0.82481997709256
38	2656	122	1.6391417283332
38	2687	123	1.6218978063508
38	2719	124	0.54345306681935
38	2750	125	-0.24994320538826
38	2781	126	0.26971197496168
38	2812	127	-0.59098793028388
38	2843	128	0.12418260897975
38	2874	129	0.33287885421887
38	2905	130	-0.62162654420827
38	2936	131	0.43825651400257
[...]
46	3780	171	654.85620648992
46	3811	172	645.09637381235
46	3842	173	635.27278935997
46	3885	174	625.5062957444
46	3940	175	615.39346505021
46	3995	176	605.48897249123
46	4050	177	595.34554876683
46	4105	178	585.71486370566
46	4160	179	575.73681090066
46	4215	180	565.61532990677
46	4270	181	555.90658359818
46	4325	182	545.79203616955
46	4368	183	535.90844625178
46	4411	184	526.32741055973
46	4454	185	516.38150727908
46	4497	186	506.67888894073
46	4528	187	496.66629119656
46	4559	188	486.65391554061
46	4590	189	476.22569383567
46	4621	190	465.01488746109
46	4652	191	453.80853229607
46	4683	192	441.82766699279
46	4714	193	427.97199081082
46	4745	194	414.09460415856
46	4764	195	399.7276610084
46	4783	196	384.59859579802
46	4802	197	368.57621989852
46	4821	198	352.37305301061
46	4840	199	340.02876480725
46	4859	200	323.31629838649
47	2967	132	19.98295659485
47	2998	133	20.110689661924
47	3029	134	21.119626640382
47	3060	135	20.279315906663
47	3091	136	19.993987380124
47	3122	137	20.890113293046
47	3141	138	19.920580322288
47	3160	139	20.498492990008
47	3179	140	20.286473159438
47	3198	141	20.840263931004
47	3217	142	20.885502611955
47	3236	143	20.039135556475
47	3255	144	20.250058244674
47	3274	145	20.113240150891
47	3293	146	20.268380896251
47	3312	147	20.596507753308
47	3331	148	21.132498154922
47	3350	149	20.811146201838
47	3369	150	20.85971822561
47	3388	151	20.161378336388
47	3407	152	20.090842473151
47	3426	153	21.034190343057
47	3445	154	20.042362981026
47	3464	155	20.838778926215
47	3483	156	20.969804693169
47	3502	157	20.141340682392
47	3521	158	20.347321500855
47	3540	159	20.880394385143
47	3559	160	20.345779856497
47	3578	161	20.156492308357
47	3597	162	20.021407261856
47	3616	163	20.841543084446
47	3635	164	20.944875468167
47	3654	165	20.904153497114
47	3673	166	20.509585280733
47	3692	167	19.898836121538
47	3711	168	21.056561241804
47	3730	169	21.006485385347
47	3749	170	20.86388523103
47	3780	171	20.68686356595
47	3811	172	20.107697000394
47	3842	173	20.239041605748
47	3885	174	20.121420199091
47	3940	175	20.89826121602
47	3995	176	20.634003544731
47	4050	177	21.131768219189
47	4105	178	20.063581097887
47	4160	179	20.78725141363
47	4215	180	21.086054985893
47	4270	181	20.22620589127
47	4325	182	21.07161030743
47	4368	183	20.59045712677
47	4411	184	19.960146696532
47	4454	185	20.720274393323
47	4497	186	20.213439506821
47	4528	187	20.859218795404
47	4559	188	20.858756119611
47	4590	189	20.728139039145
47	4621	190	20.788653192359
47	4652	191	20.653499974792
47	4683	192	20.865043951191
47	4714	193	20.963364352418
47	4745	194	20.996211865071
47	4764	195	20.254582513396
47	4783	196	20.501550224952
47	4802	197	20.472323103661
47	4821	198	20.032342508056
47	4840	199	20.020417937373
47	4859	200	20.331289010278
48	2998	133	0.12773306707386
48	3029	134	1.0089369784575
48	3060	135	-0.84031073371879
48	3091	136	-0.2853285265388
48	3122	137	0.89612591292244
48	3141	138	-0.96953297075816
48	3160	139	0.57791266771965
48	3179	140	-0.21201983056963
48	3198	141	0.5537907715654
48	3217	142	0.0452386809513
48	3236	143	-0.84636705548037
48	3255	144	0.21092268819921
48	3274	145	-0.13681809378322
48	3293	146	0.15514074536041
48	3312	147	0.32812685705721
48	3331	148	0.53599040161352
48	3350	149	-0.32135195308365
48	3369	150	0.048572023771705
48	3388	151	-0.69833988922182
48	3407	152	-0.070535863237456
48	3426	153	0.94334786990657
48	3445	154	-0.99182736203074
48	3464	155	0.79641594518907
48	3483	156	0.13102576695383
48	3502	157	-0.82846401077695
48	3521	158	0.20598081846256
48	3540	159	0.53307288428768
48	3559	160	-0.53461452864576
48	3578	161	-0.18928754813969
48	3597	162	-0.1350850465009
48	3616	163	0.82013582258951
48	3635	164	0.10333238372113
48	3654	165	-0.040721971052701
48	3673	166	-0.39456821638159
48	3692	167	-0.61074915919453
48	3711	168	1.157725120266
48	3730	169	-0.050075856456534
48	3749	170	-0.14260015431791
48	3780	171	-0.17702166507952
48	3811	172	-0.57916656555608
48	3842	173	0.13134460535366
48	3885	174	-0.11762140665669
48	3940	175	0.77684101692867
48	3995	176	-0.26425767128822
48	4050	177	0.49776467445772
48	4105	178	-1.0681871213019
48	4160	179	0.72367031574249
48	4215	180	0.29880357226357
48	4270	181	-0.85984909462277
48	4325	182	0.84540441615973
48	4368	183	-0.48115318065975
48	4411	184	-0.63031043023802
48	4454	185	0.76012769679073
48	4497	186	-0.50683488650247
48	4528	187	0.64577928858344
48	4559	188	-0.00046267579309855
48	4590	189	-0.13061708046589
48	4621	190	0.060514153214172
48	4652	191	-0.13515321756713
48	4683	192	0.21154397639912
48	4714	193	0.098320401227102
48	4745	194	0.032847512653099
48	4764	195	-0.74162935167551
48	4783	196	0.24696771155577
48	4802	197	-0.029227121290749
48	4821	198	-0.43998059560545
48	4840	199	-0.01192457068246
48	4859	200	0.31087107290514
49	2998	133	3.4505900268765
49	3029	134	8.1343532019674
49	3060	135	0.973
49	3091	136	1.4380046195955
49	3122	137	7.4714613885907
49	3141	138	0.973
49	3160	139	5.7494950399697
49	3179	140	1.8232909962048
49	3198	141	5.7328969042479
49	3217	142	3.1868247086278
49	3236	143	0.973
49	3255	144	3.8833204068804
49	3274	145	2.1687210555808
49	3293	146	3.6147428901932
49	3312	147	4.5394664994179
49	3331	148	5.7310111647402
49	3350	149	1.3348399576917
49	3369	150	3.1989439289031
49	3388	151	0.973
49	3407	152	2.4868022968678
49	3426	153	7.7664522427515
49	3445	154	0.973
49	3464	155	6.9509473212119
49	3483	156	3.6355870252402
49	3502	157	0.973
49	3521	158	3.8798296000358
49	3540	159	5.6407723270482
49	3559	160	0.973
49	3578	161	1.9193593296948
49	3597	162	2.1654325137736
49	3616	163	7.0710843931682
49	3635	164	3.4907745226038
49	3654	165	2.7571232003852
49	3673	166	0.94607913393485
49	3692	167	0.973
49	3711	168	8.8632488023212
49	3730	169	2.7261543565132
49	3749	170	2.2384450763317
49	3780	171	2.0432047060709
49	3811	172	0.973
49	3842	173	3.4928268932439
49	3885	174	2.2628531767244
49	3940	175	6.8738238217308
49	3995	176	1.6028499297224
49	4050	177	5.5361170205266
49	4105	178	0.973
49	4160	179	6.5679499434363
49	4215	180	4.5117145040081
49	4270	181	0.973
49	4325	182	7.2839789934595
49	4368	183	0.5220945375253
49	4411	184	0.973
49	4454	185	6.7270960324848
49	4497	186	0.973
49	4528	187	6.201057523052
49	4559	188	2.9522747554001
49	4590	189	2.2801532045005
49	4621	190	3.2459741634866
49	4652	191	2.2474680058937
49	4683	192	4.0194060626286
49	4714	193	3.4690552633572
49	4745	194	3.1441264498083
49	4764	195	0.973
49	4783	196	4.1152671917267
49	4802	197	2.746019735045
49	4821	198	0.69484644210271
49	4840	199	2.7595466280333
49	4859	200	4.3903677586637
55	3483	156	156.97410535295
55	3502	157	167.53027831806
55	3521	158	177.98171807599
55	3540	159	188.59591604604
55	3559	160	199.01835195697
55	3578	161	209.06544939468
55	3597	162	219.33873436162
55	3616	163	230.00899034706
55	3635	164	240.30240990149
55	3654	165	250.83420073437
55	3673	166	258.93883628791
55	3692	167	263.95004950396
55	3711	168	268.6887658944
55	3730	169	273.61476022391
55	3749	170	277.33371408609
55	3780	171	282.30071734496
55	3811	172	288.54045990584
55	3842	173	295.72687869686
55	3885	174	303.07403643607
55	3940	175	310.31431154948
55	3995	176	320.61368777053
55	4050	177	330.7858792623
55	4105	178	340.5597387338
55	4160	179	350.15369354035
55	4215	180	360.41861092958
55	4270	181	370.60805768412
55	4325	182	380.30558917486
55	4368	183	390.40761587139
55	4411	184	400.54330858484
55	4454	185	410.36441709769
55	4497	186	420.39433165998
55	4528	187	430.52535098492
55	4559	188	440.75592379314
55	4590	189	450.32831284605
55	4621	190	456.83130770581
55	4652	191	459.87837307071
55	4683	192	461.94755041977
55	4714	193	464.96960762549
55	4745	194	468.97972526161
55	4764	195	474.40243006292
55	4783	196	480.82233270753
55	4802	197	488.58968115214
55	4821	198	496.46472975851
55	4840	199	504.23575479201
55	4859	200	512.0815062132
56	3483	156	196.72194924291
56	3502	157	189.20512124306
56	3521	158	181.76287154984
56	3540	159	174.20472516847
56	3559	160	166.78312850263
56	3578	161	159.62880244273
56	3597	162	152.31341301654
56	3616	163	144.71534890542
56	3635	164	137.38562206439
56	3654	165	129.88615606635
56	3673	166	124.11501612209
56	3692	167	120.54663694337
56	3711	168	117.41684995694
56	3730	169	117.49377642652
56	3749	170	121.93180712391
56	3780	171	128.65561518964
56	3811	172	137.10232423578
56	3842	173	146.83054427357
56	3885	174	156.77635584092
56	3940	175	166.57748091945
56	3995	176	166.7986641218
56	4050	177	160.55262255493
56	4105	178	153.42339339494
56	4160	179	146.42538993828
56	4215	180	138.93797428742
56	4270	181	131.505608277
56	4325	182	124.43205412111
56	4368	183	117.06345387573
56	4411	184	109.67029703118
56	4454	185	102.50660356931
56	4497	186	95.190603213645
56	4528	187	87.800855222855
56	4559	188	80.338491128049
56	4590	189	73.356218120565
56	4621	190	68.612816528118
56	4652	191	68.190888455583
56	4683	192	70.798193824326
56	4714	193	74.634106204173
56	4745	194	79.724168647695
56	4764	195	86.607235070218
56	4783	196	94.756049720461
56	4802	197	104.61518408791
56	4821	198	114.61102281124
56	4840	199	124.4748238914
56	4859	200	134.43427112207
57	3502	157	12.959825894583
57	3521	158	12.831244813648
57	3540	159	13.03106326102
57	3559	160	12.795636756762
57	3578	161	12.334833274244
57	3597	162	12.612523968399
57	3616	163	13.099885752073
57	3635	164	12.637243225004
57	3654	165	12.929891922346
57	3673	166	9.9500705473611
57	3692	167	6.1522723258959
57	3711	168	5.6882503244963
57	3730	169	5.2050122442592
57	3749	170	5.8042427827308
57	3780	171	8.3600611163706
57	3811	172	10.502233729412
57	3842	173	12.095603157387
57	3885	174	12.366146050298
57	3940	175	12.18624979546
57	3995	176	12.43127818403
57	4050	177	11.992294627612
57	4105	178	12.098108320704
57	4160	179	11.875421865026
57	4215	180	12.705941070683
57	4270	181	12.612523325507
57	4325	182	12.003629350357
57	4368	183	12.504314553502
57	4411	184	12.545986435583
57	4454	185	12.156593305266
57	4497	186	12.415053968781
57	4528	187	12.540201703293
57	4559	188	12.663429260228
57	4590	189	11.848727719867
57	4621	190	8.0494237155511
57	4652	191	3.5494237155511
57	4683	192	3.329218364027
57	4714	193	4.8831310447628
57	4745	194	6.4796688444537
57	4764	195	8.7621697272264
57	4783	196	10.373472033846
57	4802	197	12.550715536959
57	4821	198	12.724740701795
57	4840	199	12.556656279994
57	4859	200	12.677249286507
58	3521	158	-0.12858108093496
58	3540	159	0.19981844737194
58	3559	160	-0.23542650425806
58	3578	161	-0.46080348251853
58	3597	162	0.27769069415517
58	3616	163	0.48736178367399
58	3635	164	-0.46264252706897
58	3654	165	0.29264869734179
58	3673	166	-2.9798213749844
58	3692	167	-3.7977982214652
58	3711	168	-0.46402200139965
58	3730	169	-0.48323808023706
58	3749	170	0.5992305384716
58	3780	171	2.5558183336398
58	3811	172	2.1421726130415
58	3842	173	1.5933694279753
58	3885	174	0.2705428929105
58	3940	175	-0.17989625483751
58	3995	176	0.24502838857006
58	4050	177	-0.43898355641868
58	4105	178	0.10581369309221
58	4160	179	-0.2226864556782
58	4215	180	0.83051920565777
58	4270	181	-0.093417745176703
58	4325	182	-0.60889397514984
58	4368	183	0.50068520314526
58	4411	184	0.041671882080847
58	4454	185	-0.38939313031733
58	4497	186	0.25846066351514
58	4528	187	0.12514773451258
58	4559	188	0.12322755693458
58	4590	189	-0.81470154036068
58	4621	190	-3.7993040043162
58	4652	191	-4.5
58	4683	192	-0.22020535152405
58	4714	193	1.5539126807358
58	4745	194	1.5965377996909
58	4764	195	2.2825008827727
58	4783	196	1.6113023066195
58	4802	197	2.1772435031133
58	4821	198	0.17402516483561
58	4840	199	-0.16808442180045
58	4859	200	0.12059300651308
59	3521	158	1.526518838722
59	3540	159	2.5705603376595
59	3559	160	1.1947999003396
59	3578	161	0.973
59	3597	162	2.7478459399477
59	3616	163	3.4882456522198
59	3635	164	0.973
59	3654	165	2.8453522363446
59	3673	166	0.973
59	3692	167	0.973
59	3711	168	0.973
59	3730	169	0.973
59	3749	170	2.2462776500311
59	3780	171	6.7166635827145
59	3811	172	7.1455571111468
59	3842	173	6.5017045701651
59	3885	174	2.6875190829862
59	3940	175	1.3367093228165
59	3995	176	2.6212427274543
59	4050	177	0.973
59	4105	178	2.1657058929688
59	4160	179	1.2002574251457
59	4215	180	4.4555868794823
59	4270	181	1.6198179003526
59	4325	182	0.973
59	4368	183	3.4026573205918
59	4411	184	2.0236429358304
59	4454	185	0.973
59	4497	186	2.6589978037579
59	4528	187	2.2753333310922
59	4559	188	2.2845576800805
59	4590	189	0.973
59	4621	190	0.973
59	4652	191	0.973
59	4683	192	0.973
59	4714	193	3.1850168433198
59	4745	194	3.9408651946013
59	4764	195	6.4147503731677
59	4783	196	5.7418034747682
59	4802	197	8.4836363451408
59	4821	198	2.4478533169791
59	4840	199	1.3899757270092
59	4859	200	2.278200524052
60	3730	169	520.6725729359
60	3749	170	529.10216561058
60	3780	171	532.00218650567
60	3811	172	531.95688497579
60	3842	173	531.91356722603
60	3885	174	531.86749901708
60	3940	175	531.8252823206
60	3995	176	531.78354214924
60	4050	177	531.57149819052
60	4105	178	531.11509971891
60	4160	179	530.52222394967
60	4215	180	530.63547834914
60	4270	181	533.78245690404
60	4325	182	541.00650054645
60	4368	183	550.49927822729
60	4411	184	561.49629899743
60	4454	185	573.80576223303
60	4497	186	585.81600510169
60	4528	187	597.90685306277
60	4559	188	610.31167015415
60	4590	189	622.40912700211
60	4621	190	634.71232976504
60	4652	191	646.71960543732
60	4683	192	659.03006299952
60	4714	193	671.28681125342
60	4745	194	683.11799947998
60	4764	195	695.06855278954
60	4783	196	702.52034804557
60	4802	197	707.71050004249
60	4821	198	711.4154426362
60	4840	199	715.01281362942
60	4859	200	714.95936805008
61	3730	169	29.688803723
61	3749	170	37.962931648909
61	3780	171	48.729545658756
61	3811	172	61.433140059144
61	3842	173	73.58043673177
61	3885	174	86.499025634732
61	3940	175	98.337561557586
61	3995	176	110.04246884258
61	4050	177	121.84275716111
61	4105	178	133.47859473834
61	4160	179	142.79248182287
61	4215	180	149.17473315351
61	4270	181	155.6438553021
61	4325	182	157.09284794619
61	4368	183	156.48095592991
61	4411	184	156.21253185101
61	4454	185	155.91207262666
61	4497	186	155.61891701235
61	4528	187	155.32379392448
61	4559	188	155.02100722695
61	4590	189	154.72572282408
61	4621	190	154.42541641035
61	4652	191	154.13233322175
61	4683	192	153.83184972708
61	4714	193	153.53267721216
61	4745	194	153.24389210678
61	4764	195	152.95219344297
61	4783	196	152.77030406406
61	4802	197	152.86103239382
61	4821	198	155.60525979518
61	4840	199	160.62518733501
61	4859	200	168.10475551792
62	3749	170	11.812487106422
62	3780	171	11.967800753704
62	3811	172	12.703449590691
62	3842	173	12.147158204229
62	3885	174	12.918441642519
62	3940	175	11.838400974055
62	3995	176	11.704773859447
62	4050	177	11.800245030039
62	4105	178	11.647661245242
62	4160	179	9.3393871176144
62	4215	180	6.3819267592165
62	4270	181	7.4573187266847
62	4325	182	7.6529327907039
62	4368	183	9.5143054951353
62	4411	184	11.00005665495
62	4454	185	12.312861438911
62	4497	186	12.013558467921
62	4528	187	12.094185812516
62	4559	188	12.408241618495
62	4590	189	12.100796523877
62	4621	190	12.306599237957
62	4652	191	12.010590452399
62	4683	192	12.313856040012
62	4714	193	12.260131904483
62	4745	194	11.834454395227
62	4764	195	11.953852430652
62	4783	196	7.453852430652
62	4802	197	5.200835994321
62	4821	198	4.8934915141128
62	4840	199	5.0262173229289
62	4859	200	7.4319396394231
63	3780	171	0.15531364728231
63	3811	172	0.73564883698709
63	3842	173	-0.55629138646182
63	3885	174	0.77128343828954
63	3940	175	-1.0800406684633
63	3995	176	-0.13362711460795
63	4050	177	0.095471170591191
63	4105	178	-0.1525837847963
63	4160	179	-2.3082741276279
63	4215	180	-2.9574603583979
63	4270	181	1.0753919674682
63	4325	182	0.19561406401917
63	4368	183	1.8613727044314
63	4411	184	1.4857511598151
63	4454	185	1.3128047839607
63	4497	186	-0.29930297099054
63	4528	187	0.080627344595268
63	4559	188	0.3140558059793
63	4590	189	-0.30744509461802
63	4621	190	0.20580271407962
63	4652	191	-0.29600878555793
63	4683	192	0.30326558761299
63	4714	193	-0.053724135528318
63	4745	194	-0.42567750925664
63	4764	195	0.11939803542518
63	4783	196	-4.5
63	4802	197	-2.253016436331
63	4821	198	-0.30734448020812
63	4840	199	0.13272580881603
63	4859	200	2.4057223164942
64	3780	171	2.2936376920021
64	3811	172	4.1644079500433
64	3842	173	0.973
64	3885	174	4.333617065215
64	3940	175	0.973
64	3995	176	1.4458325739726
64	4050	177	2.1025412844663
64	4105	178	1.3895458139874
64	4160	179	0.973
64	4215	180	0.973
64	4270	181	3.4407611174486
64	4325	182	1.8813649508359
64	4368	183	5.9165619020659
64	4411	184	5.7023475330483
64	4454	185	5.7720334633079
64	4497	186	0.973
64	4528	187	2.0918469669579
64	4559	188	2.8242049527339
64	4590	189	0.973
64	4621	190	2.4862402952178
64	4652	191	0.973
64	4683	192	2.7764897132823
64	4714	193	1.7129291329303
64	4745	194	0.973
64	4764	195	2.1884212023708
64	4783	196	0.973
64	4802	197	0.973
64	4821	198	0.973
64	4840	199	1.5249678933215
64	4859	200	5.8153208325862
65	4325	182	712.04755287009
65	4368	183	715.2097533403
65	4411	184	715.16031041147
65	4454	185	711.87765741916
65	4497	186	714.99357000132
65	4528	187	714.91680378874
65	4559	188	714.57915253396
65	4590	189	712.83627837786
65	4621	190	711.05311484249
65	4652	191	709.20392766489
65	4683	192	702.55585796129
65	4714	193	696.81093968648
65	4745	194	694.40654173719
65	4764	195	696.48508514748
65	4783	196	702.21113868244
65	4802	197	709.02364170296
65	4821	198	712.18306231232
65	4840	199	712.6285085405
65	4859	200	713.55099192648
66	4325	182	142.29
66	4368	183	144.64389245657
66	4411	184	148.37813471301
66	4454	185	154.59057756974
66	4497	186	163.31828244704
66	4528	187	174.06151188091
66	4559	188	186.85406786251
66	4590	189	199.68617825561
66	4621	190	208.54132873855
66	4652	191	217.32937568483
66	4683	192	224.02024917079
66	4714	193	232.36475796118
66	4745	194	243.7716445789
66	4764	195	255.03008611709
66	4783	196	264.29801072534
66	4802	197	270.20143547838
66	4821	198	275.58614261768
66	4840	199	283.24773587009
66	4859	200	290.13899007816
67	4368	183	2.2949710523244
67	4411	184	3.739446775266
67	4454	185	6.2511763125891
67	4497	186	8.6702233621851
67	4528	187	10.674818483158
67	4559	188	12.727513875044
67	4590	189	12.870327638614
67	4621	190	8.9754918403002
67	4652	191	8.7215196019262
67	4683	192	9.7486613218593
67	4714	193	9.7946177801969
67	4745	194	10.920825368158
67	4764	195	10.770683252873
67	4783	196	10.365781255082
67	4802	197	8.8251548616817
67	4821	198	6.5595726156837
67	4840	199	7.8171714980084
67	4859	200	6.976577776803
68	4411	184	1.4444757229416
68	4454	185	2.5117295373231
68	4497	186	2.419047049596
68	4528	187	2.004595120973
68	4559	188	2.0526953918859
68	4590	189	0.14281376357001
68	4621	190	-3.8948357983138
68	4652	191	-0.25397223837395
68	4683	192	1.0271417199331
68	4714	193	0.045956458337605
68	4745	194	1.1262075879611
68	4764	195	-0.15014211528469
68	4783	196	-0.4049019977916
68	4802	197	-1.5406263934
68	4821	198	-2.265582245998
68	4840	199	1.2575988823247
68	4859	200	-0.84059372120537
69	4411	184	2.5969926024563
69	4454	185	5.2181275887146
69	4497	186	6.6431173278544
69	4528	187	6.894408289758
69	4559	188	8.2107310044956
69	4590	189	2.3707804797092
69	4621	190	0.973
69	4652	191	0.973
69	4683	192	4.0790572685893
69	4714	193	1.7777758014406
69	4745	194	4.7212280154773
69	4764	195	1.3552743505423
69	4783	196	0.973
69	4802	197	0.973
69	4821	198	0.973
69	4840	199	3.9004678411531
69	4859	200	0.973
70	4764	195	720.93464078286
70	4783	196	722.61808579931
70	4802	197	726.81220755832
70	4821	198	734.45989666757
70	4840	199	742.02741420211
70	4859	200	749.16812412841
71	4764	195	273.84623285601
71	4783	196	270.74800873468
71	4802	197	270.96041592562
71	4821	198	272.48785015507
71	4840	199	268.1587564333
71	4859	200	260.46548784969
72	4783	196	2.0300680076936
72	4802	197	4.6156192382099
72	4821	198	6.3372967659263
72	4840	199	8.6721326444997
72	4859	200	10.373778884788
73	4802	197	2.5855512305163
73	4821	198	1.7216775277164
73	4840	199	2.3348358785734
73	4859	200	1.7016462402884
74	4802	197	4.2178158888167
74	4821	198	4.0687212633036
74	4840	199	6.4683623125562
74	4859	200	5.967813712036

