version 2
run General-0-20241119-13:47:48-12476
attr configname General
attr datetime 20241119-13:47:48
attr experiment General
attr inifile omnetpp.ini
attr iterationvars ""
attr iterationvarsf ""
attr measurement ""
attr network RSUExampleScenario
attr processid 12476
attr repetition 0
attr replication #0
attr resultdir results
attr runnumber 0
attr seedset 0
param *.playgroundSizeX 2500m
param *.playgroundSizeY 1500m
param *.playgroundSizeZ 100m
param *.annotations.draw true
param *.manager.updateInterval 1s
param *.manager.host "\"localhost\""
param *.manager.port 9999
param *.manager.autoShutdown true
param *.manager.launchConfig "xmldoc(\"osm.launchd.xml\")"
param *.rsu[0].mobility.x 400
param *.rsu[0].mobility.y 250
param *.rsu[0].mobility.z 4
param *.rsu[*].applType "\"TraCIDemoRSU11p\""
param *.rsu[*].appl.headerLength "80 bit"
param *.rsu[*].appl.sendBeacons true
param *.rsu[*].appl.dataOnSch false
param *.rsu[*].appl.beaconInterval 1s
param *.rsu[*].appl.beaconUserPriority 7
param *.rsu[*].appl.dataUserPriority 5
param *.rsu[*].nic.phy80211p.antennaOffsetZ "0 m"
param *.connectionManager.sendDirect true
param *.connectionManager.maxInterfDist 100m
param *.connectionManager.drawMaxIntfDist false
param *.**.nic.mac1609_4.useServiceChannel false
param *.**.nic.mac1609_4.txPower 20mW
param *.**.nic.mac1609_4.bitrate 6Mbps
param *.**.nic.phy80211p.minPowerLevel -90dBm
param *.**.nic.phy80211p.useNoiseFloor true
param *.**.nic.phy80211p.noiseFloor -98dBm
param *.**.nic.phy80211p.decider "xmldoc(\"config.xml\")"
param *.**.nic.phy80211p.analogueModels "xmldoc(\"config.xml\")"
param *.**.nic.phy80211p.usePropagationDelay true
param *.**.nic.phy80211p.antenna "xmldoc(\"antenna.xml\", \"/root/Antenna[@id='monopole']\")"
param *.node[*].nic.phy80211p.antennaOffsetY "0 m"
param *.node[*].nic.phy80211p.antennaOffsetZ "1.895 m"
param *.node[*].applType "\"MyVeinsApp\""
param *.node[*].appl.headerLength "80 bit"
param *.node[*].appl.sendBeacons false
param *.node[*].appl.dataOnSch false
param *.node[*].appl.beaconInterval 1s
param *.node[*].veinsmobility.x 0
param *.node[*].veinsmobility.y 0
param *.node[*].veinsmobility.z 0
param *.node[*].veinsmobility.setHostSpeed true
param *.node[*0].veinsmobility.accidentCount 1
param *.node[*0].veinsmobility.accidentStart 73s
param *.node[*0].veinsmobility.accidentDuration 50s

scalar RSUExampleScenario.node[7].appl generatedWSMs 0
scalar RSUExampleScenario.node[7].appl receivedWSMs 0
scalar RSUExampleScenario.node[7].appl generatedBSMs 0
scalar RSUExampleScenario.node[7].appl receivedBSMs 0
scalar RSUExampleScenario.node[7].appl generatedWSAs 0
scalar RSUExampleScenario.node[7].appl receivedWSAs 0
scalar RSUExampleScenario.node[7].nic.phy80211p busyTime 0
scalar RSUExampleScenario.node[7].nic.mac1609_4 ReceivedUnicastPackets 0
scalar RSUExampleScenario.node[7].nic.mac1609_4 ReceivedBroadcasts 0
scalar RSUExampleScenario.node[7].nic.mac1609_4 SentPackets 0
scalar RSUExampleScenario.node[7].nic.mac1609_4 SentAcknowledgements 0
scalar RSUExampleScenario.node[7].nic.mac1609_4 RetriesExceeded 0
scalar RSUExampleScenario.node[7].nic.mac1609_4 SNIRLostPackets 0
scalar RSUExampleScenario.node[7].nic.mac1609_4 RXTXLostPackets 0
scalar RSUExampleScenario.node[7].nic.mac1609_4 TotalLostPackets 0
scalar RSUExampleScenario.node[7].nic.mac1609_4 DroppedPacketsInMac 0
scalar RSUExampleScenario.node[7].nic.mac1609_4 TooLittleTime 0
scalar RSUExampleScenario.node[7].nic.mac1609_4 TimesIntoBackoff 0
scalar RSUExampleScenario.node[7].nic.mac1609_4 SlotsBackoff 0
scalar RSUExampleScenario.node[7].nic.mac1609_4 NumInternalContention 0
scalar RSUExampleScenario.node[7].nic.mac1609_4 totalBusyTime 0
scalar RSUExampleScenario.node[7].nic.mac1609_4 retriesExceeded:count 0
attr source org_car2x_veins_modules_mac_sigRetriesExceeded
scalar RSUExampleScenario.node[7].nic.mac1609_4 sentAcks:count 0
attr source org_car2x_veins_modules_mac_sigSentAck
scalar RSUExampleScenario.node[7].nic.mac1609_4 sentPackets:count 0
attr source org_car2x_veins_modules_mac_sigSentPacket
scalar RSUExampleScenario.node[7].nic.mac1609_4 collisions:count 0
attr source org_car2x_veins_modules_mac_sigCollision
scalar RSUExampleScenario.node[7].nic.mac1609_4 channelBusy:timeavg 0
attr source org_car2x_veins_modules_mac_sigChannelBusy
scalar RSUExampleScenario.node[7].veinsmobility startTime 8
scalar RSUExampleScenario.node[7].veinsmobility totalTime 13
scalar RSUExampleScenario.node[7].veinsmobility stopTime 22
scalar RSUExampleScenario.node[7].veinsmobility minSpeed 1.6874481278472
scalar RSUExampleScenario.node[7].veinsmobility maxSpeed 13.061109357319
scalar RSUExampleScenario.node[7].veinsmobility totalDistance 119.88526034897
scalar RSUExampleScenario.node[7].veinsmobility totalCO2Emission 49.206309824056
scalar RSUExampleScenario.node[13].appl generatedWSMs 0
scalar RSUExampleScenario.node[13].appl receivedWSMs 0
scalar RSUExampleScenario.node[13].appl generatedBSMs 0
scalar RSUExampleScenario.node[13].appl receivedBSMs 0
scalar RSUExampleScenario.node[13].appl generatedWSAs 0
scalar RSUExampleScenario.node[13].appl receivedWSAs 0
scalar RSUExampleScenario.node[13].nic.phy80211p busyTime 0
scalar RSUExampleScenario.node[13].nic.mac1609_4 ReceivedUnicastPackets 0
scalar RSUExampleScenario.node[13].nic.mac1609_4 ReceivedBroadcasts 0
scalar RSUExampleScenario.node[13].nic.mac1609_4 SentPackets 0
scalar RSUExampleScenario.node[13].nic.mac1609_4 SentAcknowledgements 0
scalar RSUExampleScenario.node[13].nic.mac1609_4 RetriesExceeded 0
scalar RSUExampleScenario.node[13].nic.mac1609_4 SNIRLostPackets 0
scalar RSUExampleScenario.node[13].nic.mac1609_4 RXTXLostPackets 0
scalar RSUExampleScenario.node[13].nic.mac1609_4 TotalLostPackets 0
scalar RSUExampleScenario.node[13].nic.mac1609_4 DroppedPacketsInMac 0
scalar RSUExampleScenario.node[13].nic.mac1609_4 TooLittleTime 0
scalar RSUExampleScenario.node[13].nic.mac1609_4 TimesIntoBackoff 0
scalar RSUExampleScenario.node[13].nic.mac1609_4 SlotsBackoff 0
scalar RSUExampleScenario.node[13].nic.mac1609_4 NumInternalContention 0
scalar RSUExampleScenario.node[13].nic.mac1609_4 totalBusyTime 0
scalar RSUExampleScenario.node[13].nic.mac1609_4 retriesExceeded:count 0
attr source org_car2x_veins_modules_mac_sigRetriesExceeded
scalar RSUExampleScenario.node[13].nic.mac1609_4 sentAcks:count 0
attr source org_car2x_veins_modules_mac_sigSentAck
scalar RSUExampleScenario.node[13].nic.mac1609_4 sentPackets:count 0
attr source org_car2x_veins_modules_mac_sigSentPacket
scalar RSUExampleScenario.node[13].nic.mac1609_4 collisions:count 0
attr source org_car2x_veins_modules_mac_sigCollision
scalar RSUExampleScenario.node[13].nic.mac1609_4 channelBusy:timeavg 0
attr source org_car2x_veins_modules_mac_sigChannelBusy
scalar RSUExampleScenario.node[13].veinsmobility startTime 14
scalar RSUExampleScenario.node[13].veinsmobility totalTime 7
scalar RSUExampleScenario.node[13].veinsmobility stopTime 22
scalar RSUExampleScenario.node[13].veinsmobility minSpeed 1.7928180593066
scalar RSUExampleScenario.node[13].veinsmobility maxSpeed 12.222137236735
scalar RSUExampleScenario.node[13].veinsmobility totalDistance 55.186578682267
scalar RSUExampleScenario.node[13].veinsmobility totalCO2Emission 29.152405709445
scalar RSUExampleScenario.node[20].appl generatedWSMs 0
scalar RSUExampleScenario.node[20].appl receivedWSMs 0
scalar RSUExampleScenario.node[20].appl generatedBSMs 0
scalar RSUExampleScenario.node[20].appl receivedBSMs 0
scalar RSUExampleScenario.node[20].appl generatedWSAs 0
scalar RSUExampleScenario.node[20].appl receivedWSAs 0
scalar RSUExampleScenario.node[20].nic.phy80211p busyTime 0
scalar RSUExampleScenario.node[20].nic.mac1609_4 ReceivedUnicastPackets 0
scalar RSUExampleScenario.node[20].nic.mac1609_4 ReceivedBroadcasts 0
scalar RSUExampleScenario.node[20].nic.mac1609_4 SentPackets 0
scalar RSUExampleScenario.node[20].nic.mac1609_4 SentAcknowledgements 0
scalar RSUExampleScenario.node[20].nic.mac1609_4 RetriesExceeded 0
scalar RSUExampleScenario.node[20].nic.mac1609_4 SNIRLostPackets 0
scalar RSUExampleScenario.node[20].nic.mac1609_4 RXTXLostPackets 0
scalar RSUExampleScenario.node[20].nic.mac1609_4 TotalLostPackets 0
scalar RSUExampleScenario.node[20].nic.mac1609_4 DroppedPacketsInMac 0
scalar RSUExampleScenario.node[20].nic.mac1609_4 TooLittleTime 0
scalar RSUExampleScenario.node[20].nic.mac1609_4 TimesIntoBackoff 0
scalar RSUExampleScenario.node[20].nic.mac1609_4 SlotsBackoff 0
scalar RSUExampleScenario.node[20].nic.mac1609_4 NumInternalContention 0
scalar RSUExampleScenario.node[20].nic.mac1609_4 totalBusyTime 0
scalar RSUExampleScenario.node[20].nic.mac1609_4 retriesExceeded:count 0
attr source org_car2x_veins_modules_mac_sigRetriesExceeded
scalar RSUExampleScenario.node[20].nic.mac1609_4 sentAcks:count 0
attr source org_car2x_veins_modules_mac_sigSentAck
scalar RSUExampleScenario.node[20].nic.mac1609_4 sentPackets:count 0
attr source org_car2x_veins_modules_mac_sigSentPacket
scalar RSUExampleScenario.node[20].nic.mac1609_4 collisions:count 0
attr source org_car2x_veins_modules_mac_sigCollision
scalar RSUExampleScenario.node[20].nic.mac1609_4 channelBusy:timeavg 0
attr source org_car2x_veins_modules_mac_sigChannelBusy
scalar RSUExampleScenario.node[20].veinsmobility startTime 22
scalar RSUExampleScenario.node[20].veinsmobility totalTime 10
scalar RSUExampleScenario.node[20].veinsmobility stopTime 33
scalar RSUExampleScenario.node[20].veinsmobility minSpeed 2.3735365288565
scalar RSUExampleScenario.node[20].veinsmobility maxSpeed 11.909207140167
scalar RSUExampleScenario.node[20].veinsmobility totalDistance 86.260498970719
scalar RSUExampleScenario.node[20].veinsmobility totalCO2Emission 33.311041796859
scalar RSUExampleScenario.node[26].appl generatedWSMs 0
scalar RSUExampleScenario.node[26].appl receivedWSMs 0
scalar RSUExampleScenario.node[26].appl generatedBSMs 0
scalar RSUExampleScenario.node[26].appl receivedBSMs 0
scalar RSUExampleScenario.node[26].appl generatedWSAs 0
scalar RSUExampleScenario.node[26].appl receivedWSAs 0
scalar RSUExampleScenario.node[26].nic.phy80211p busyTime 0
scalar RSUExampleScenario.node[26].nic.mac1609_4 ReceivedUnicastPackets 0
scalar RSUExampleScenario.node[26].nic.mac1609_4 ReceivedBroadcasts 0
scalar RSUExampleScenario.node[26].nic.mac1609_4 SentPackets 0
scalar RSUExampleScenario.node[26].nic.mac1609_4 SentAcknowledgements 0
scalar RSUExampleScenario.node[26].nic.mac1609_4 RetriesExceeded 0
scalar RSUExampleScenario.node[26].nic.mac1609_4 SNIRLostPackets 0
scalar RSUExampleScenario.node[26].nic.mac1609_4 RXTXLostPackets 0
scalar RSUExampleScenario.node[26].nic.mac1609_4 TotalLostPackets 0
scalar RSUExampleScenario.node[26].nic.mac1609_4 DroppedPacketsInMac 0
scalar RSUExampleScenario.node[26].nic.mac1609_4 TooLittleTime 0
scalar RSUExampleScenario.node[26].nic.mac1609_4 TimesIntoBackoff 0
scalar RSUExampleScenario.node[26].nic.mac1609_4 SlotsBackoff 0
scalar RSUExampleScenario.node[26].nic.mac1609_4 NumInternalContention 0
scalar RSUExampleScenario.node[26].nic.mac1609_4 totalBusyTime 0
scalar RSUExampleScenario.node[26].nic.mac1609_4 retriesExceeded:count 0
attr source org_car2x_veins_modules_mac_sigRetriesExceeded
scalar RSUExampleScenario.node[26].nic.mac1609_4 sentAcks:count 0
attr source org_car2x_veins_modules_mac_sigSentAck
scalar RSUExampleScenario.node[26].nic.mac1609_4 sentPackets:count 0
attr source org_car2x_veins_modules_mac_sigSentPacket
scalar RSUExampleScenario.node[26].nic.mac1609_4 collisions:count 0
attr source org_car2x_veins_modules_mac_sigCollision
scalar RSUExampleScenario.node[26].nic.mac1609_4 channelBusy:timeavg 0
attr source org_car2x_veins_modules_mac_sigChannelBusy
scalar RSUExampleScenario.node[26].veinsmobility startTime 28
scalar RSUExampleScenario.node[26].veinsmobility totalTime 27
scalar RSUExampleScenario.node[26].veinsmobility stopTime 56
scalar RSUExampleScenario.node[26].veinsmobility minSpeed 0.22002625033754
scalar RSUExampleScenario.node[26].veinsmobility maxSpeed 12.188054611077
scalar RSUExampleScenario.node[26].veinsmobility totalDistance 194.77763345463
scalar RSUExampleScenario.node[26].veinsmobility totalCO2Emission 74.380712192016
scalar RSUExampleScenario.node[8].appl generatedWSMs 0
scalar RSUExampleScenario.node[8].appl receivedWSMs 0
scalar RSUExampleScenario.node[8].appl generatedBSMs 0
scalar RSUExampleScenario.node[8].appl receivedBSMs 0
scalar RSUExampleScenario.node[8].appl generatedWSAs 0
scalar RSUExampleScenario.node[8].appl receivedWSAs 0
scalar RSUExampleScenario.node[8].nic.phy80211p busyTime 0
scalar RSUExampleScenario.node[8].nic.mac1609_4 ReceivedUnicastPackets 0
scalar RSUExampleScenario.node[8].nic.mac1609_4 ReceivedBroadcasts 0
scalar RSUExampleScenario.node[8].nic.mac1609_4 SentPackets 0
scalar RSUExampleScenario.node[8].nic.mac1609_4 SentAcknowledgements 0
scalar RSUExampleScenario.node[8].nic.mac1609_4 RetriesExceeded 0
scalar RSUExampleScenario.node[8].nic.mac1609_4 SNIRLostPackets 0
scalar RSUExampleScenario.node[8].nic.mac1609_4 RXTXLostPackets 0
scalar RSUExampleScenario.node[8].nic.mac1609_4 TotalLostPackets 0
scalar RSUExampleScenario.node[8].nic.mac1609_4 DroppedPacketsInMac 0
scalar RSUExampleScenario.node[8].nic.mac1609_4 TooLittleTime 0
scalar RSUExampleScenario.node[8].nic.mac1609_4 TimesIntoBackoff 0
scalar RSUExampleScenario.node[8].nic.mac1609_4 SlotsBackoff 0
scalar RSUExampleScenario.node[8].nic.mac1609_4 NumInternalContention 0
scalar RSUExampleScenario.node[8].nic.mac1609_4 totalBusyTime 0
scalar RSUExampleScenario.node[8].nic.mac1609_4 retriesExceeded:count 0
attr source org_car2x_veins_modules_mac_sigRetriesExceeded
scalar RSUExampleScenario.node[8].nic.mac1609_4 sentAcks:count 0
attr source org_car2x_veins_modules_mac_sigSentAck
scalar RSUExampleScenario.node[8].nic.mac1609_4 sentPackets:count 0
attr source org_car2x_veins_modules_mac_sigSentPacket
scalar RSUExampleScenario.node[8].nic.mac1609_4 collisions:count 0
attr source org_car2x_veins_modules_mac_sigCollision
scalar RSUExampleScenario.node[8].nic.mac1609_4 channelBusy:timeavg 0
attr source org_car2x_veins_modules_mac_sigChannelBusy
scalar RSUExampleScenario.node[8].veinsmobility startTime 10
scalar RSUExampleScenario.node[8].veinsmobility totalTime 47
scalar RSUExampleScenario.node[8].veinsmobility stopTime 58
scalar RSUExampleScenario.node[8].veinsmobility minSpeed 0.0063348779090659
scalar RSUExampleScenario.node[8].veinsmobility maxSpeed 13.528618209735
scalar RSUExampleScenario.node[8].veinsmobility totalDistance 348.17512715208
scalar RSUExampleScenario.node[8].veinsmobility totalCO2Emission 132.02804188954
scalar RSUExampleScenario.node[4].appl generatedWSMs 0
scalar RSUExampleScenario.node[4].appl receivedWSMs 10
scalar RSUExampleScenario.node[4].appl generatedBSMs 0
scalar RSUExampleScenario.node[4].appl receivedBSMs 10
scalar RSUExampleScenario.node[4].appl generatedWSAs 0
scalar RSUExampleScenario.node[4].appl receivedWSAs 0
scalar RSUExampleScenario.node[4].nic.phy80211p busyTime 2.8474576271186e-005
scalar RSUExampleScenario.node[4].nic.mac1609_4 ReceivedUnicastPackets 0
scalar RSUExampleScenario.node[4].nic.mac1609_4 ReceivedBroadcasts 20
scalar RSUExampleScenario.node[4].nic.mac1609_4 SentPackets 0
scalar RSUExampleScenario.node[4].nic.mac1609_4 SentAcknowledgements 0
scalar RSUExampleScenario.node[4].nic.mac1609_4 RetriesExceeded 0
scalar RSUExampleScenario.node[4].nic.mac1609_4 SNIRLostPackets 0
scalar RSUExampleScenario.node[4].nic.mac1609_4 RXTXLostPackets 0
scalar RSUExampleScenario.node[4].nic.mac1609_4 TotalLostPackets 0
scalar RSUExampleScenario.node[4].nic.mac1609_4 DroppedPacketsInMac 0
scalar RSUExampleScenario.node[4].nic.mac1609_4 TooLittleTime 0
scalar RSUExampleScenario.node[4].nic.mac1609_4 TimesIntoBackoff 0
scalar RSUExampleScenario.node[4].nic.mac1609_4 SlotsBackoff 0
scalar RSUExampleScenario.node[4].nic.mac1609_4 NumInternalContention 0
scalar RSUExampleScenario.node[4].nic.mac1609_4 totalBusyTime 0.00168
scalar RSUExampleScenario.node[4].nic.mac1609_4 retriesExceeded:count 0
attr source org_car2x_veins_modules_mac_sigRetriesExceeded
scalar RSUExampleScenario.node[4].nic.mac1609_4 sentAcks:count 0
attr source org_car2x_veins_modules_mac_sigSentAck
scalar RSUExampleScenario.node[4].nic.mac1609_4 sentPackets:count 0
attr source org_car2x_veins_modules_mac_sigSentPacket
scalar RSUExampleScenario.node[4].nic.mac1609_4 collisions:count 0
attr source org_car2x_veins_modules_mac_sigCollision
scalar RSUExampleScenario.node[4].nic.mac1609_4 channelBusy:timeavg 2.8474576271186e-005
attr source org_car2x_veins_modules_mac_sigChannelBusy
scalar RSUExampleScenario.node[4].veinsmobility startTime 5
scalar RSUExampleScenario.node[4].veinsmobility totalTime 58
scalar RSUExampleScenario.node[4].veinsmobility stopTime 64
scalar RSUExampleScenario.node[4].veinsmobility minSpeed 1.528189688758
scalar RSUExampleScenario.node[4].veinsmobility maxSpeed 10.734819975609
scalar RSUExampleScenario.node[4].veinsmobility totalDistance 511.07348830313
scalar RSUExampleScenario.node[4].veinsmobility totalCO2Emission 154.79307211762
scalar RSUExampleScenario.node[5].appl generatedWSMs 0
scalar RSUExampleScenario.node[5].appl receivedWSMs 0
scalar RSUExampleScenario.node[5].appl generatedBSMs 0
scalar RSUExampleScenario.node[5].appl receivedBSMs 0
scalar RSUExampleScenario.node[5].appl generatedWSAs 0
scalar RSUExampleScenario.node[5].appl receivedWSAs 0
scalar RSUExampleScenario.node[5].nic.phy80211p busyTime 0
scalar RSUExampleScenario.node[5].nic.mac1609_4 ReceivedUnicastPackets 0
scalar RSUExampleScenario.node[5].nic.mac1609_4 ReceivedBroadcasts 0
scalar RSUExampleScenario.node[5].nic.mac1609_4 SentPackets 0
scalar RSUExampleScenario.node[5].nic.mac1609_4 SentAcknowledgements 0
scalar RSUExampleScenario.node[5].nic.mac1609_4 RetriesExceeded 0
scalar RSUExampleScenario.node[5].nic.mac1609_4 SNIRLostPackets 0
scalar RSUExampleScenario.node[5].nic.mac1609_4 RXTXLostPackets 0
scalar RSUExampleScenario.node[5].nic.mac1609_4 TotalLostPackets 0
scalar RSUExampleScenario.node[5].nic.mac1609_4 DroppedPacketsInMac 0
scalar RSUExampleScenario.node[5].nic.mac1609_4 TooLittleTime 0
scalar RSUExampleScenario.node[5].nic.mac1609_4 TimesIntoBackoff 0
scalar RSUExampleScenario.node[5].nic.mac1609_4 SlotsBackoff 0
scalar RSUExampleScenario.node[5].nic.mac1609_4 NumInternalContention 0
scalar RSUExampleScenario.node[5].nic.mac1609_4 totalBusyTime 0
scalar RSUExampleScenario.node[5].nic.mac1609_4 retriesExceeded:count 0
attr source org_car2x_veins_modules_mac_sigRetriesExceeded
scalar RSUExampleScenario.node[5].nic.mac1609_4 sentAcks:count 0
attr source org_car2x_veins_modules_mac_sigSentAck
scalar RSUExampleScenario.node[5].nic.mac1609_4 sentPackets:count 0
attr source org_car2x_veins_modules_mac_sigSentPacket
scalar RSUExampleScenario.node[5].nic.mac1609_4 collisions:count 0
attr source org_car2x_veins_modules_mac_sigCollision
scalar RSUExampleScenario.node[5].nic.mac1609_4 channelBusy:timeavg 0
attr source org_car2x_veins_modules_mac_sigChannelBusy
scalar RSUExampleScenario.node[5].veinsmobility startTime 6
scalar RSUExampleScenario.node[5].veinsmobility totalTime 58
scalar RSUExampleScenario.node[5].veinsmobility stopTime 65
scalar RSUExampleScenario.node[5].veinsmobility minSpeed 0.57503082296336
scalar RSUExampleScenario.node[5].veinsmobility maxSpeed 10.488887953005
scalar RSUExampleScenario.node[5].veinsmobility totalDistance 409.62787107853
scalar RSUExampleScenario.node[5].veinsmobility totalCO2Emission 125.61125774655
scalar RSUExampleScenario.node[0].appl generatedWSMs 0
scalar RSUExampleScenario.node[0].appl receivedWSMs 10
scalar RSUExampleScenario.node[0].appl generatedBSMs 0
scalar RSUExampleScenario.node[0].appl receivedBSMs 10
scalar RSUExampleScenario.node[0].appl generatedWSAs 0
scalar RSUExampleScenario.node[0].appl receivedWSAs 0
scalar RSUExampleScenario.node[0].nic.phy80211p busyTime 2.5846153846154e-005
scalar RSUExampleScenario.node[0].nic.mac1609_4 ReceivedUnicastPackets 0
scalar RSUExampleScenario.node[0].nic.mac1609_4 ReceivedBroadcasts 20
scalar RSUExampleScenario.node[0].nic.mac1609_4 SentPackets 0
scalar RSUExampleScenario.node[0].nic.mac1609_4 SentAcknowledgements 0
scalar RSUExampleScenario.node[0].nic.mac1609_4 RetriesExceeded 0
scalar RSUExampleScenario.node[0].nic.mac1609_4 SNIRLostPackets 0
scalar RSUExampleScenario.node[0].nic.mac1609_4 RXTXLostPackets 0
scalar RSUExampleScenario.node[0].nic.mac1609_4 TotalLostPackets 0
scalar RSUExampleScenario.node[0].nic.mac1609_4 DroppedPacketsInMac 0
scalar RSUExampleScenario.node[0].nic.mac1609_4 TooLittleTime 0
scalar RSUExampleScenario.node[0].nic.mac1609_4 TimesIntoBackoff 0
scalar RSUExampleScenario.node[0].nic.mac1609_4 SlotsBackoff 0
scalar RSUExampleScenario.node[0].nic.mac1609_4 NumInternalContention 0
scalar RSUExampleScenario.node[0].nic.mac1609_4 totalBusyTime 0.00168
scalar RSUExampleScenario.node[0].nic.mac1609_4 retriesExceeded:count 0
attr source org_car2x_veins_modules_mac_sigRetriesExceeded
scalar RSUExampleScenario.node[0].nic.mac1609_4 sentAcks:count 0
attr source org_car2x_veins_modules_mac_sigSentAck
scalar RSUExampleScenario.node[0].nic.mac1609_4 sentPackets:count 0
attr source org_car2x_veins_modules_mac_sigSentPacket
scalar RSUExampleScenario.node[0].nic.mac1609_4 collisions:count 0
attr source org_car2x_veins_modules_mac_sigCollision
scalar RSUExampleScenario.node[0].nic.mac1609_4 channelBusy:timeavg 2.5846153846154e-005
attr source org_car2x_veins_modules_mac_sigChannelBusy
scalar RSUExampleScenario.node[0].veinsmobility startTime 1
scalar RSUExampleScenario.node[0].veinsmobility totalTime 64
scalar RSUExampleScenario.node[0].veinsmobility stopTime 66
scalar RSUExampleScenario.node[0].veinsmobility minSpeed 0.36444306300906
scalar RSUExampleScenario.node[0].veinsmobility maxSpeed 13.286163377556
scalar RSUExampleScenario.node[0].veinsmobility totalDistance 543.05298527635
scalar RSUExampleScenario.node[0].veinsmobility totalCO2Emission 202.37715834568
scalar RSUExampleScenario.node[17].appl generatedWSMs 0
scalar RSUExampleScenario.node[17].appl receivedWSMs 0
scalar RSUExampleScenario.node[17].appl generatedBSMs 0
scalar RSUExampleScenario.node[17].appl receivedBSMs 0
scalar RSUExampleScenario.node[17].appl generatedWSAs 0
scalar RSUExampleScenario.node[17].appl receivedWSAs 0
scalar RSUExampleScenario.node[17].nic.phy80211p busyTime 0
scalar RSUExampleScenario.node[17].nic.mac1609_4 ReceivedUnicastPackets 0
scalar RSUExampleScenario.node[17].nic.mac1609_4 ReceivedBroadcasts 0
scalar RSUExampleScenario.node[17].nic.mac1609_4 SentPackets 0
scalar RSUExampleScenario.node[17].nic.mac1609_4 SentAcknowledgements 0
scalar RSUExampleScenario.node[17].nic.mac1609_4 RetriesExceeded 0
scalar RSUExampleScenario.node[17].nic.mac1609_4 SNIRLostPackets 0
scalar RSUExampleScenario.node[17].nic.mac1609_4 RXTXLostPackets 0
scalar RSUExampleScenario.node[17].nic.mac1609_4 TotalLostPackets 0
scalar RSUExampleScenario.node[17].nic.mac1609_4 DroppedPacketsInMac 0
scalar RSUExampleScenario.node[17].nic.mac1609_4 TooLittleTime 0
scalar RSUExampleScenario.node[17].nic.mac1609_4 TimesIntoBackoff 0
scalar RSUExampleScenario.node[17].nic.mac1609_4 SlotsBackoff 0
scalar RSUExampleScenario.node[17].nic.mac1609_4 NumInternalContention 0
scalar RSUExampleScenario.node[17].nic.mac1609_4 totalBusyTime 0
scalar RSUExampleScenario.node[17].nic.mac1609_4 retriesExceeded:count 0
attr source org_car2x_veins_modules_mac_sigRetriesExceeded
scalar RSUExampleScenario.node[17].nic.mac1609_4 sentAcks:count 0
attr source org_car2x_veins_modules_mac_sigSentAck
scalar RSUExampleScenario.node[17].nic.mac1609_4 sentPackets:count 0
attr source org_car2x_veins_modules_mac_sigSentPacket
scalar RSUExampleScenario.node[17].nic.mac1609_4 collisions:count 0
attr source org_car2x_veins_modules_mac_sigCollision
scalar RSUExampleScenario.node[17].nic.mac1609_4 channelBusy:timeavg 0
attr source org_car2x_veins_modules_mac_sigChannelBusy
scalar RSUExampleScenario.node[17].veinsmobility startTime 19
scalar RSUExampleScenario.node[17].veinsmobility totalTime 46
scalar RSUExampleScenario.node[17].veinsmobility stopTime 66
scalar RSUExampleScenario.node[17].veinsmobility minSpeed 2.2737992957234
scalar RSUExampleScenario.node[17].veinsmobility maxSpeed 15.026091844105
scalar RSUExampleScenario.node[17].veinsmobility totalDistance 436.79839281134
scalar RSUExampleScenario.node[17].veinsmobility totalCO2Emission 161.05528052039
scalar RSUExampleScenario.node[22].appl generatedWSMs 0
scalar RSUExampleScenario.node[22].appl receivedWSMs 0
scalar RSUExampleScenario.node[22].appl generatedBSMs 0
scalar RSUExampleScenario.node[22].appl receivedBSMs 0
scalar RSUExampleScenario.node[22].appl generatedWSAs 0
scalar RSUExampleScenario.node[22].appl receivedWSAs 0
scalar RSUExampleScenario.node[22].nic.phy80211p busyTime 0
scalar RSUExampleScenario.node[22].nic.mac1609_4 ReceivedUnicastPackets 0
scalar RSUExampleScenario.node[22].nic.mac1609_4 ReceivedBroadcasts 0
scalar RSUExampleScenario.node[22].nic.mac1609_4 SentPackets 0
scalar RSUExampleScenario.node[22].nic.mac1609_4 SentAcknowledgements 0
scalar RSUExampleScenario.node[22].nic.mac1609_4 RetriesExceeded 0
scalar RSUExampleScenario.node[22].nic.mac1609_4 SNIRLostPackets 0
scalar RSUExampleScenario.node[22].nic.mac1609_4 RXTXLostPackets 0
scalar RSUExampleScenario.node[22].nic.mac1609_4 TotalLostPackets 0
scalar RSUExampleScenario.node[22].nic.mac1609_4 DroppedPacketsInMac 0
scalar RSUExampleScenario.node[22].nic.mac1609_4 TooLittleTime 0
scalar RSUExampleScenario.node[22].nic.mac1609_4 TimesIntoBackoff 0
scalar RSUExampleScenario.node[22].nic.mac1609_4 SlotsBackoff 0
scalar RSUExampleScenario.node[22].nic.mac1609_4 NumInternalContention 0
scalar RSUExampleScenario.node[22].nic.mac1609_4 totalBusyTime 0
scalar RSUExampleScenario.node[22].nic.mac1609_4 retriesExceeded:count 0
attr source org_car2x_veins_modules_mac_sigRetriesExceeded
scalar RSUExampleScenario.node[22].nic.mac1609_4 sentAcks:count 0
attr source org_car2x_veins_modules_mac_sigSentAck
scalar RSUExampleScenario.node[22].nic.mac1609_4 sentPackets:count 0
attr source org_car2x_veins_modules_mac_sigSentPacket
scalar RSUExampleScenario.node[22].nic.mac1609_4 collisions:count 0
attr source org_car2x_veins_modules_mac_sigCollision
scalar RSUExampleScenario.node[22].nic.mac1609_4 channelBusy:timeavg 0
attr source org_car2x_veins_modules_mac_sigChannelBusy
scalar RSUExampleScenario.node[22].veinsmobility startTime 24
scalar RSUExampleScenario.node[22].veinsmobility totalTime 44
scalar RSUExampleScenario.node[22].veinsmobility stopTime 69
scalar RSUExampleScenario.node[22].veinsmobility minSpeed 0.47854863984781
scalar RSUExampleScenario.node[22].veinsmobility maxSpeed 16.260904136197
scalar RSUExampleScenario.node[22].veinsmobility totalDistance 436.50102415727
scalar RSUExampleScenario.node[22].veinsmobility totalCO2Emission 174.95384123748
scalar RSUExampleScenario.node[46].appl generatedWSMs 0
scalar RSUExampleScenario.node[46].appl receivedWSMs 0
scalar RSUExampleScenario.node[46].appl generatedBSMs 0
scalar RSUExampleScenario.node[46].appl receivedBSMs 0
scalar RSUExampleScenario.node[46].appl generatedWSAs 0
scalar RSUExampleScenario.node[46].appl receivedWSAs 0
scalar RSUExampleScenario.node[46].nic.phy80211p busyTime 0
scalar RSUExampleScenario.node[46].nic.mac1609_4 ReceivedUnicastPackets 0
scalar RSUExampleScenario.node[46].nic.mac1609_4 ReceivedBroadcasts 0
scalar RSUExampleScenario.node[46].nic.mac1609_4 SentPackets 0
scalar RSUExampleScenario.node[46].nic.mac1609_4 SentAcknowledgements 0
scalar RSUExampleScenario.node[46].nic.mac1609_4 RetriesExceeded 0
scalar RSUExampleScenario.node[46].nic.mac1609_4 SNIRLostPackets 0
scalar RSUExampleScenario.node[46].nic.mac1609_4 RXTXLostPackets 0
scalar RSUExampleScenario.node[46].nic.mac1609_4 TotalLostPackets 0
scalar RSUExampleScenario.node[46].nic.mac1609_4 DroppedPacketsInMac 0
scalar RSUExampleScenario.node[46].nic.mac1609_4 TooLittleTime 0
scalar RSUExampleScenario.node[46].nic.mac1609_4 TimesIntoBackoff 0
scalar RSUExampleScenario.node[46].nic.mac1609_4 SlotsBackoff 0
scalar RSUExampleScenario.node[46].nic.mac1609_4 NumInternalContention 0
scalar RSUExampleScenario.node[46].nic.mac1609_4 totalBusyTime 0
scalar RSUExampleScenario.node[46].nic.mac1609_4 retriesExceeded:count 0
attr source org_car2x_veins_modules_mac_sigRetriesExceeded
scalar RSUExampleScenario.node[46].nic.mac1609_4 sentAcks:count 0
attr source org_car2x_veins_modules_mac_sigSentAck
scalar RSUExampleScenario.node[46].nic.mac1609_4 sentPackets:count 0
attr source org_car2x_veins_modules_mac_sigSentPacket
scalar RSUExampleScenario.node[46].nic.mac1609_4 collisions:count 0
attr source org_car2x_veins_modules_mac_sigCollision
scalar RSUExampleScenario.node[46].nic.mac1609_4 channelBusy:timeavg 0
attr source org_car2x_veins_modules_mac_sigChannelBusy
scalar RSUExampleScenario.node[46].veinsmobility startTime 48
scalar RSUExampleScenario.node[46].veinsmobility totalTime 27
scalar RSUExampleScenario.node[46].veinsmobility stopTime 76
scalar RSUExampleScenario.node[46].veinsmobility minSpeed 0.022621372938249
scalar RSUExampleScenario.node[46].veinsmobility maxSpeed 11.681802878505
scalar RSUExampleScenario.node[46].veinsmobility totalDistance 195.71827678738
scalar RSUExampleScenario.node[46].veinsmobility totalCO2Emission 81.964615708605
scalar RSUExampleScenario.node[69].appl generatedWSMs 0
scalar RSUExampleScenario.node[69].appl receivedWSMs 0
scalar RSUExampleScenario.node[69].appl generatedBSMs 0
scalar RSUExampleScenario.node[69].appl receivedBSMs 0
scalar RSUExampleScenario.node[69].appl generatedWSAs 0
scalar RSUExampleScenario.node[69].appl receivedWSAs 0
scalar RSUExampleScenario.node[69].nic.phy80211p busyTime 0
scalar RSUExampleScenario.node[69].nic.mac1609_4 ReceivedUnicastPackets 0
scalar RSUExampleScenario.node[69].nic.mac1609_4 ReceivedBroadcasts 0
scalar RSUExampleScenario.node[69].nic.mac1609_4 SentPackets 0
scalar RSUExampleScenario.node[69].nic.mac1609_4 SentAcknowledgements 0
scalar RSUExampleScenario.node[69].nic.mac1609_4 RetriesExceeded 0
scalar RSUExampleScenario.node[69].nic.mac1609_4 SNIRLostPackets 0
scalar RSUExampleScenario.node[69].nic.mac1609_4 RXTXLostPackets 0
scalar RSUExampleScenario.node[69].nic.mac1609_4 TotalLostPackets 0
scalar RSUExampleScenario.node[69].nic.mac1609_4 DroppedPacketsInMac 0
scalar RSUExampleScenario.node[69].nic.mac1609_4 TooLittleTime 0
scalar RSUExampleScenario.node[69].nic.mac1609_4 TimesIntoBackoff 0
scalar RSUExampleScenario.node[69].nic.mac1609_4 SlotsBackoff 0
scalar RSUExampleScenario.node[69].nic.mac1609_4 NumInternalContention 0
scalar RSUExampleScenario.node[69].nic.mac1609_4 totalBusyTime 0
scalar RSUExampleScenario.node[69].nic.mac1609_4 retriesExceeded:count 0
attr source org_car2x_veins_modules_mac_sigRetriesExceeded
scalar RSUExampleScenario.node[69].nic.mac1609_4 sentAcks:count 0
attr source org_car2x_veins_modules_mac_sigSentAck
scalar RSUExampleScenario.node[69].nic.mac1609_4 sentPackets:count 0
attr source org_car2x_veins_modules_mac_sigSentPacket
scalar RSUExampleScenario.node[69].nic.mac1609_4 collisions:count 0
attr source org_car2x_veins_modules_mac_sigCollision
scalar RSUExampleScenario.node[69].nic.mac1609_4 channelBusy:timeavg 0
attr source org_car2x_veins_modules_mac_sigChannelBusy
scalar RSUExampleScenario.node[69].veinsmobility startTime 71
scalar RSUExampleScenario.node[69].veinsmobility totalTime 4
scalar RSUExampleScenario.node[69].veinsmobility stopTime 76
scalar RSUExampleScenario.node[69].veinsmobility minSpeed 2.0269472099841
scalar RSUExampleScenario.node[69].veinsmobility maxSpeed 8.6051009547664
scalar RSUExampleScenario.node[69].veinsmobility totalDistance 23.28362115044
scalar RSUExampleScenario.node[69].veinsmobility totalCO2Emission 14.569133537544
scalar RSUExampleScenario.node[50].appl generatedWSMs 0
scalar RSUExampleScenario.node[50].appl receivedWSMs 0
scalar RSUExampleScenario.node[50].appl generatedBSMs 0
scalar RSUExampleScenario.node[50].appl receivedBSMs 0
scalar RSUExampleScenario.node[50].appl generatedWSAs 0
scalar RSUExampleScenario.node[50].appl receivedWSAs 0
scalar RSUExampleScenario.node[50].nic.phy80211p busyTime 0
scalar RSUExampleScenario.node[50].nic.mac1609_4 ReceivedUnicastPackets 0
scalar RSUExampleScenario.node[50].nic.mac1609_4 ReceivedBroadcasts 0
scalar RSUExampleScenario.node[50].nic.mac1609_4 SentPackets 0
scalar RSUExampleScenario.node[50].nic.mac1609_4 SentAcknowledgements 0
scalar RSUExampleScenario.node[50].nic.mac1609_4 RetriesExceeded 0
scalar RSUExampleScenario.node[50].nic.mac1609_4 SNIRLostPackets 0
scalar RSUExampleScenario.node[50].nic.mac1609_4 RXTXLostPackets 0
scalar RSUExampleScenario.node[50].nic.mac1609_4 TotalLostPackets 0
scalar RSUExampleScenario.node[50].nic.mac1609_4 DroppedPacketsInMac 0
scalar RSUExampleScenario.node[50].nic.mac1609_4 TooLittleTime 0
scalar RSUExampleScenario.node[50].nic.mac1609_4 TimesIntoBackoff 0
scalar RSUExampleScenario.node[50].nic.mac1609_4 SlotsBackoff 0
scalar RSUExampleScenario.node[50].nic.mac1609_4 NumInternalContention 0
scalar RSUExampleScenario.node[50].nic.mac1609_4 totalBusyTime 0
scalar RSUExampleScenario.node[50].nic.mac1609_4 retriesExceeded:count 0
attr source org_car2x_veins_modules_mac_sigRetriesExceeded
scalar RSUExampleScenario.node[50].nic.mac1609_4 sentAcks:count 0
attr source org_car2x_veins_modules_mac_sigSentAck
scalar RSUExampleScenario.node[50].nic.mac1609_4 sentPackets:count 0
attr source org_car2x_veins_modules_mac_sigSentPacket
scalar RSUExampleScenario.node[50].nic.mac1609_4 collisions:count 0
attr source org_car2x_veins_modules_mac_sigCollision
scalar RSUExampleScenario.node[50].nic.mac1609_4 channelBusy:timeavg 0
attr source org_car2x_veins_modules_mac_sigChannelBusy
scalar RSUExampleScenario.node[50].veinsmobility startTime 52
scalar RSUExampleScenario.node[50].veinsmobility totalTime 24
scalar RSUExampleScenario.node[50].veinsmobility stopTime 77
scalar RSUExampleScenario.node[50].veinsmobility minSpeed 2.0682226589648
scalar RSUExampleScenario.node[50].veinsmobility maxSpeed 14.888671569021
scalar RSUExampleScenario.node[50].veinsmobility totalDistance 231.53508352163
scalar RSUExampleScenario.node[50].veinsmobility totalCO2Emission 88.820386151641
scalar RSUExampleScenario.node[74].appl generatedWSMs 0
scalar RSUExampleScenario.node[74].appl receivedWSMs 0
scalar RSUExampleScenario.node[74].appl generatedBSMs 0
scalar RSUExampleScenario.node[74].appl receivedBSMs 0
scalar RSUExampleScenario.node[74].appl generatedWSAs 0
scalar RSUExampleScenario.node[74].appl receivedWSAs 0
scalar RSUExampleScenario.node[74].nic.phy80211p busyTime 0
scalar RSUExampleScenario.node[74].nic.mac1609_4 ReceivedUnicastPackets 0
scalar RSUExampleScenario.node[74].nic.mac1609_4 ReceivedBroadcasts 0
scalar RSUExampleScenario.node[74].nic.mac1609_4 SentPackets 0
scalar RSUExampleScenario.node[74].nic.mac1609_4 SentAcknowledgements 0
scalar RSUExampleScenario.node[74].nic.mac1609_4 RetriesExceeded 0
scalar RSUExampleScenario.node[74].nic.mac1609_4 SNIRLostPackets 0
scalar RSUExampleScenario.node[74].nic.mac1609_4 RXTXLostPackets 0
scalar RSUExampleScenario.node[74].nic.mac1609_4 TotalLostPackets 0
scalar RSUExampleScenario.node[74].nic.mac1609_4 DroppedPacketsInMac 0
scalar RSUExampleScenario.node[74].nic.mac1609_4 TooLittleTime 0
scalar RSUExampleScenario.node[74].nic.mac1609_4 TimesIntoBackoff 0
scalar RSUExampleScenario.node[74].nic.mac1609_4 SlotsBackoff 0
scalar RSUExampleScenario.node[74].nic.mac1609_4 NumInternalContention 0
scalar RSUExampleScenario.node[74].nic.mac1609_4 totalBusyTime 0
scalar RSUExampleScenario.node[74].nic.mac1609_4 retriesExceeded:count 0
attr source org_car2x_veins_modules_mac_sigRetriesExceeded
scalar RSUExampleScenario.node[74].nic.mac1609_4 sentAcks:count 0
attr source org_car2x_veins_modules_mac_sigSentAck
scalar RSUExampleScenario.node[74].nic.mac1609_4 sentPackets:count 0
attr source org_car2x_veins_modules_mac_sigSentPacket
scalar RSUExampleScenario.node[74].nic.mac1609_4 collisions:count 0
attr source org_car2x_veins_modules_mac_sigCollision
scalar RSUExampleScenario.node[74].nic.mac1609_4 channelBusy:timeavg 0
attr source org_car2x_veins_modules_mac_sigChannelBusy
scalar RSUExampleScenario.node[74].veinsmobility startTime 77
scalar RSUExampleScenario.node[74].veinsmobility totalTime 2
scalar RSUExampleScenario.node[74].veinsmobility stopTime 80
scalar RSUExampleScenario.node[74].veinsmobility minSpeed 1.4708149450365
scalar RSUExampleScenario.node[74].veinsmobility maxSpeed 4.0639611511957
scalar RSUExampleScenario.node[74].veinsmobility totalDistance 6.0715429240304
scalar RSUExampleScenario.node[74].veinsmobility totalCO2Emission 3.8520112605082
scalar RSUExampleScenario.node[10].appl generatedWSMs 0
scalar RSUExampleScenario.node[10].appl receivedWSMs 0
scalar RSUExampleScenario.node[10].appl generatedBSMs 0
scalar RSUExampleScenario.node[10].appl receivedBSMs 0
scalar RSUExampleScenario.node[10].appl generatedWSAs 0
scalar RSUExampleScenario.node[10].appl receivedWSAs 0
scalar RSUExampleScenario.node[10].nic.phy80211p busyTime 0
scalar RSUExampleScenario.node[10].nic.mac1609_4 ReceivedUnicastPackets 0
scalar RSUExampleScenario.node[10].nic.mac1609_4 ReceivedBroadcasts 0
scalar RSUExampleScenario.node[10].nic.mac1609_4 SentPackets 0
scalar RSUExampleScenario.node[10].nic.mac1609_4 SentAcknowledgements 0
scalar RSUExampleScenario.node[10].nic.mac1609_4 RetriesExceeded 0
scalar RSUExampleScenario.node[10].nic.mac1609_4 SNIRLostPackets 0
scalar RSUExampleScenario.node[10].nic.mac1609_4 RXTXLostPackets 0
scalar RSUExampleScenario.node[10].nic.mac1609_4 TotalLostPackets 0
scalar RSUExampleScenario.node[10].nic.mac1609_4 DroppedPacketsInMac 0
scalar RSUExampleScenario.node[10].nic.mac1609_4 TooLittleTime 0
scalar RSUExampleScenario.node[10].nic.mac1609_4 TimesIntoBackoff 0
scalar RSUExampleScenario.node[10].nic.mac1609_4 SlotsBackoff 0
scalar RSUExampleScenario.node[10].nic.mac1609_4 NumInternalContention 0
scalar RSUExampleScenario.node[10].nic.mac1609_4 totalBusyTime 0
scalar RSUExampleScenario.node[10].nic.mac1609_4 retriesExceeded:count 0
attr source org_car2x_veins_modules_mac_sigRetriesExceeded
scalar RSUExampleScenario.node[10].nic.mac1609_4 sentAcks:count 0
attr source org_car2x_veins_modules_mac_sigSentAck
scalar RSUExampleScenario.node[10].nic.mac1609_4 sentPackets:count 0
attr source org_car2x_veins_modules_mac_sigSentPacket
scalar RSUExampleScenario.node[10].nic.mac1609_4 collisions:count 0
attr source org_car2x_veins_modules_mac_sigCollision
scalar RSUExampleScenario.node[10].nic.mac1609_4 channelBusy:timeavg 0
attr source org_car2x_veins_modules_mac_sigChannelBusy
scalar RSUExampleScenario.node[10].veinsmobility startTime 12
scalar RSUExampleScenario.node[10].veinsmobility totalTime 68
scalar RSUExampleScenario.node[10].veinsmobility stopTime 81
scalar RSUExampleScenario.node[10].veinsmobility minSpeed 2.208746208949
scalar RSUExampleScenario.node[10].veinsmobility maxSpeed 12.060239987088
scalar RSUExampleScenario.node[10].veinsmobility totalDistance 568.90801247414
scalar RSUExampleScenario.node[10].veinsmobility totalCO2Emission 150.0790802749
scalar RSUExampleScenario.node[42].appl generatedWSMs 0
scalar RSUExampleScenario.node[42].appl receivedWSMs 6
scalar RSUExampleScenario.node[42].appl generatedBSMs 0
scalar RSUExampleScenario.node[42].appl receivedBSMs 6
scalar RSUExampleScenario.node[42].appl generatedWSAs 0
scalar RSUExampleScenario.node[42].appl receivedWSAs 0
scalar RSUExampleScenario.node[42].nic.phy80211p busyTime 2.88e-005
scalar RSUExampleScenario.node[42].nic.mac1609_4 ReceivedUnicastPackets 0
scalar RSUExampleScenario.node[42].nic.mac1609_4 ReceivedBroadcasts 12
scalar RSUExampleScenario.node[42].nic.mac1609_4 SentPackets 0
scalar RSUExampleScenario.node[42].nic.mac1609_4 SentAcknowledgements 0
scalar RSUExampleScenario.node[42].nic.mac1609_4 RetriesExceeded 0
scalar RSUExampleScenario.node[42].nic.mac1609_4 SNIRLostPackets 0
scalar RSUExampleScenario.node[42].nic.mac1609_4 RXTXLostPackets 0
scalar RSUExampleScenario.node[42].nic.mac1609_4 TotalLostPackets 0
scalar RSUExampleScenario.node[42].nic.mac1609_4 DroppedPacketsInMac 0
scalar RSUExampleScenario.node[42].nic.mac1609_4 TooLittleTime 0
scalar RSUExampleScenario.node[42].nic.mac1609_4 TimesIntoBackoff 0
scalar RSUExampleScenario.node[42].nic.mac1609_4 SlotsBackoff 0
scalar RSUExampleScenario.node[42].nic.mac1609_4 NumInternalContention 0
scalar RSUExampleScenario.node[42].nic.mac1609_4 totalBusyTime 0.001008
scalar RSUExampleScenario.node[42].nic.mac1609_4 retriesExceeded:count 0
attr source org_car2x_veins_modules_mac_sigRetriesExceeded
scalar RSUExampleScenario.node[42].nic.mac1609_4 sentAcks:count 0
attr source org_car2x_veins_modules_mac_sigSentAck
scalar RSUExampleScenario.node[42].nic.mac1609_4 sentPackets:count 0
attr source org_car2x_veins_modules_mac_sigSentPacket
scalar RSUExampleScenario.node[42].nic.mac1609_4 collisions:count 0
attr source org_car2x_veins_modules_mac_sigCollision
scalar RSUExampleScenario.node[42].nic.mac1609_4 channelBusy:timeavg 2.88e-005
attr source org_car2x_veins_modules_mac_sigChannelBusy
scalar RSUExampleScenario.node[42].veinsmobility startTime 46
scalar RSUExampleScenario.node[42].veinsmobility totalTime 34
scalar RSUExampleScenario.node[42].veinsmobility stopTime 81
scalar RSUExampleScenario.node[42].veinsmobility minSpeed 1.6311310216319
scalar RSUExampleScenario.node[42].veinsmobility maxSpeed 10.309100396652
scalar RSUExampleScenario.node[42].veinsmobility totalDistance 290.86561976607
scalar RSUExampleScenario.node[42].veinsmobility totalCO2Emission 93.613059811496
scalar RSUExampleScenario.node[30].appl generatedWSMs 0
scalar RSUExampleScenario.node[30].appl receivedWSMs 0
scalar RSUExampleScenario.node[30].appl generatedBSMs 0
scalar RSUExampleScenario.node[30].appl receivedBSMs 0
scalar RSUExampleScenario.node[30].appl generatedWSAs 0
scalar RSUExampleScenario.node[30].appl receivedWSAs 0
scalar RSUExampleScenario.node[30].nic.phy80211p busyTime 0
scalar RSUExampleScenario.node[30].nic.mac1609_4 ReceivedUnicastPackets 0
scalar RSUExampleScenario.node[30].nic.mac1609_4 ReceivedBroadcasts 0
scalar RSUExampleScenario.node[30].nic.mac1609_4 SentPackets 0
scalar RSUExampleScenario.node[30].nic.mac1609_4 SentAcknowledgements 0
scalar RSUExampleScenario.node[30].nic.mac1609_4 RetriesExceeded 0
scalar RSUExampleScenario.node[30].nic.mac1609_4 SNIRLostPackets 0
scalar RSUExampleScenario.node[30].nic.mac1609_4 RXTXLostPackets 0
scalar RSUExampleScenario.node[30].nic.mac1609_4 TotalLostPackets 0
scalar RSUExampleScenario.node[30].nic.mac1609_4 DroppedPacketsInMac 0
scalar RSUExampleScenario.node[30].nic.mac1609_4 TooLittleTime 0
scalar RSUExampleScenario.node[30].nic.mac1609_4 TimesIntoBackoff 0
scalar RSUExampleScenario.node[30].nic.mac1609_4 SlotsBackoff 0
scalar RSUExampleScenario.node[30].nic.mac1609_4 NumInternalContention 0
scalar RSUExampleScenario.node[30].nic.mac1609_4 totalBusyTime 0
scalar RSUExampleScenario.node[30].nic.mac1609_4 retriesExceeded:count 0
attr source org_car2x_veins_modules_mac_sigRetriesExceeded
scalar RSUExampleScenario.node[30].nic.mac1609_4 sentAcks:count 0
attr source org_car2x_veins_modules_mac_sigSentAck
scalar RSUExampleScenario.node[30].nic.mac1609_4 sentPackets:count 0
attr source org_car2x_veins_modules_mac_sigSentPacket
scalar RSUExampleScenario.node[30].nic.mac1609_4 collisions:count 0
attr source org_car2x_veins_modules_mac_sigCollision
scalar RSUExampleScenario.node[30].nic.mac1609_4 channelBusy:timeavg 0
attr source org_car2x_veins_modules_mac_sigChannelBusy
scalar RSUExampleScenario.node[30].veinsmobility startTime 32
scalar RSUExampleScenario.node[30].veinsmobility totalTime 49
scalar RSUExampleScenario.node[30].veinsmobility stopTime 82
scalar RSUExampleScenario.node[30].veinsmobility minSpeed 1.3445260382257
scalar RSUExampleScenario.node[30].veinsmobility maxSpeed 17.627613841562
scalar RSUExampleScenario.node[30].veinsmobility totalDistance 464.09217519731
scalar RSUExampleScenario.node[30].veinsmobility totalCO2Emission 176.58035754503
scalar RSUExampleScenario.manager roiArea 0
scalar RSUExampleScenario.rsu[0].appl generatedWSMs 83
scalar RSUExampleScenario.rsu[0].appl receivedWSMs 0
scalar RSUExampleScenario.rsu[0].appl generatedBSMs 82
scalar RSUExampleScenario.rsu[0].appl receivedBSMs 0
scalar RSUExampleScenario.rsu[0].appl generatedWSAs 0
scalar RSUExampleScenario.rsu[0].appl receivedWSAs 0
scalar RSUExampleScenario.rsu[0].nic.phy80211p busyTime 0
scalar RSUExampleScenario.rsu[0].nic.mac1609_4 ReceivedUnicastPackets 0
scalar RSUExampleScenario.rsu[0].nic.mac1609_4 ReceivedBroadcasts 0
scalar RSUExampleScenario.rsu[0].nic.mac1609_4 SentPackets 165
scalar RSUExampleScenario.rsu[0].nic.mac1609_4 SentAcknowledgements 0
scalar RSUExampleScenario.rsu[0].nic.mac1609_4 RetriesExceeded 0
scalar RSUExampleScenario.rsu[0].nic.mac1609_4 SNIRLostPackets 0
scalar RSUExampleScenario.rsu[0].nic.mac1609_4 RXTXLostPackets 0
scalar RSUExampleScenario.rsu[0].nic.mac1609_4 TotalLostPackets 0
scalar RSUExampleScenario.rsu[0].nic.mac1609_4 DroppedPacketsInMac 0
scalar RSUExampleScenario.rsu[0].nic.mac1609_4 TooLittleTime 0
scalar RSUExampleScenario.rsu[0].nic.mac1609_4 TimesIntoBackoff 165
scalar RSUExampleScenario.rsu[0].nic.mac1609_4 SlotsBackoff 233
scalar RSUExampleScenario.rsu[0].nic.mac1609_4 NumInternalContention 0
scalar RSUExampleScenario.rsu[0].nic.mac1609_4 totalBusyTime 0.014005
scalar RSUExampleScenario.rsu[0].nic.mac1609_4 retriesExceeded:count 0
attr source org_car2x_veins_modules_mac_sigRetriesExceeded
scalar RSUExampleScenario.rsu[0].nic.mac1609_4 sentAcks:count 0
attr source org_car2x_veins_modules_mac_sigSentAck
scalar RSUExampleScenario.rsu[0].nic.mac1609_4 sentPackets:count 165
attr source org_car2x_veins_modules_mac_sigSentPacket
scalar RSUExampleScenario.rsu[0].nic.mac1609_4 collisions:count 0
attr source org_car2x_veins_modules_mac_sigCollision
scalar RSUExampleScenario.rsu[0].nic.mac1609_4 channelBusy:timeavg 0.00017079254292678
attr source org_car2x_veins_modules_mac_sigChannelBusy
scalar RSUExampleScenario.node[1].appl generatedWSMs 0
scalar RSUExampleScenario.node[1].appl receivedWSMs 11
scalar RSUExampleScenario.node[1].appl generatedBSMs 0
scalar RSUExampleScenario.node[1].appl receivedBSMs 11
scalar RSUExampleScenario.node[1].appl generatedWSAs 0
scalar RSUExampleScenario.node[1].appl receivedWSAs 0
scalar RSUExampleScenario.node[1].nic.phy80211p busyTime 2.3099980591375e-005
scalar RSUExampleScenario.node[1].nic.mac1609_4 ReceivedUnicastPackets 0
scalar RSUExampleScenario.node[1].nic.mac1609_4 ReceivedBroadcasts 22
scalar RSUExampleScenario.node[1].nic.mac1609_4 SentPackets 0
scalar RSUExampleScenario.node[1].nic.mac1609_4 SentAcknowledgements 0
scalar RSUExampleScenario.node[1].nic.mac1609_4 RetriesExceeded 0
scalar RSUExampleScenario.node[1].nic.mac1609_4 SNIRLostPackets 0
scalar RSUExampleScenario.node[1].nic.mac1609_4 RXTXLostPackets 0
scalar RSUExampleScenario.node[1].nic.mac1609_4 TotalLostPackets 0
scalar RSUExampleScenario.node[1].nic.mac1609_4 DroppedPacketsInMac 0
scalar RSUExampleScenario.node[1].nic.mac1609_4 TooLittleTime 0
scalar RSUExampleScenario.node[1].nic.mac1609_4 TimesIntoBackoff 0
scalar RSUExampleScenario.node[1].nic.mac1609_4 SlotsBackoff 0
scalar RSUExampleScenario.node[1].nic.mac1609_4 NumInternalContention 0
scalar RSUExampleScenario.node[1].nic.mac1609_4 totalBusyTime 0.001848
scalar RSUExampleScenario.node[1].nic.mac1609_4 retriesExceeded:count 0
attr source org_car2x_veins_modules_mac_sigRetriesExceeded
scalar RSUExampleScenario.node[1].nic.mac1609_4 sentAcks:count 0
attr source org_car2x_veins_modules_mac_sigSentAck
scalar RSUExampleScenario.node[1].nic.mac1609_4 sentPackets:count 0
attr source org_car2x_veins_modules_mac_sigSentPacket
scalar RSUExampleScenario.node[1].nic.mac1609_4 collisions:count 0
attr source org_car2x_veins_modules_mac_sigCollision
scalar RSUExampleScenario.node[1].nic.mac1609_4 channelBusy:timeavg 2.3099980591375e-005
attr source org_car2x_veins_modules_mac_sigChannelBusy
scalar RSUExampleScenario.node[1].veinsmobility startTime 2
scalar RSUExampleScenario.node[1].veinsmobility totalTime 80
scalar RSUExampleScenario.node[1].veinsmobility stopTime 82.000067216073
scalar RSUExampleScenario.node[1].veinsmobility minSpeed 0
scalar RSUExampleScenario.node[1].veinsmobility maxSpeed 17.169356723132
scalar RSUExampleScenario.node[1].veinsmobility totalDistance 564.01507245605
scalar RSUExampleScenario.node[1].veinsmobility totalCO2Emission 237.66747768427
scalar RSUExampleScenario.node[2].appl generatedWSMs 0
scalar RSUExampleScenario.node[2].appl receivedWSMs 10
scalar RSUExampleScenario.node[2].appl generatedBSMs 0
scalar RSUExampleScenario.node[2].appl receivedBSMs 10
scalar RSUExampleScenario.node[2].appl generatedWSAs 0
scalar RSUExampleScenario.node[2].appl receivedWSAs 0
scalar RSUExampleScenario.node[2].nic.phy80211p busyTime 2.126580469109e-005
scalar RSUExampleScenario.node[2].nic.mac1609_4 ReceivedUnicastPackets 0
scalar RSUExampleScenario.node[2].nic.mac1609_4 ReceivedBroadcasts 20
scalar RSUExampleScenario.node[2].nic.mac1609_4 SentPackets 0
scalar RSUExampleScenario.node[2].nic.mac1609_4 SentAcknowledgements 0
scalar RSUExampleScenario.node[2].nic.mac1609_4 RetriesExceeded 0
scalar RSUExampleScenario.node[2].nic.mac1609_4 SNIRLostPackets 0
scalar RSUExampleScenario.node[2].nic.mac1609_4 RXTXLostPackets 0
scalar RSUExampleScenario.node[2].nic.mac1609_4 TotalLostPackets 0
scalar RSUExampleScenario.node[2].nic.mac1609_4 DroppedPacketsInMac 0
scalar RSUExampleScenario.node[2].nic.mac1609_4 TooLittleTime 0
scalar RSUExampleScenario.node[2].nic.mac1609_4 TimesIntoBackoff 0
scalar RSUExampleScenario.node[2].nic.mac1609_4 SlotsBackoff 0
scalar RSUExampleScenario.node[2].nic.mac1609_4 NumInternalContention 0
scalar RSUExampleScenario.node[2].nic.mac1609_4 totalBusyTime 0.00168
scalar RSUExampleScenario.node[2].nic.mac1609_4 retriesExceeded:count 0
attr source org_car2x_veins_modules_mac_sigRetriesExceeded
scalar RSUExampleScenario.node[2].nic.mac1609_4 sentAcks:count 0
attr source org_car2x_veins_modules_mac_sigSentAck
scalar RSUExampleScenario.node[2].nic.mac1609_4 sentPackets:count 0
attr source org_car2x_veins_modules_mac_sigSentPacket
scalar RSUExampleScenario.node[2].nic.mac1609_4 collisions:count 0
attr source org_car2x_veins_modules_mac_sigCollision
scalar RSUExampleScenario.node[2].nic.mac1609_4 channelBusy:timeavg 2.126580469109e-005
attr source org_car2x_veins_modules_mac_sigChannelBusy
scalar RSUExampleScenario.node[2].veinsmobility startTime 3
scalar RSUExampleScenario.node[2].veinsmobility totalTime 79
scalar RSUExampleScenario.node[2].veinsmobility stopTime 82.000067216073
scalar RSUExampleScenario.node[2].veinsmobility minSpeed 0
scalar RSUExampleScenario.node[2].veinsmobility maxSpeed 19.525887324211
scalar RSUExampleScenario.node[2].veinsmobility totalDistance 856.50772592795
scalar RSUExampleScenario.node[2].veinsmobility totalCO2Emission 273.4271162888
scalar RSUExampleScenario.node[3].appl generatedWSMs 0
scalar RSUExampleScenario.node[3].appl receivedWSMs 0
scalar RSUExampleScenario.node[3].appl generatedBSMs 0
scalar RSUExampleScenario.node[3].appl receivedBSMs 0
scalar RSUExampleScenario.node[3].appl generatedWSAs 0
scalar RSUExampleScenario.node[3].appl receivedWSAs 0
scalar RSUExampleScenario.node[3].nic.phy80211p busyTime 0
scalar RSUExampleScenario.node[3].nic.mac1609_4 ReceivedUnicastPackets 0
scalar RSUExampleScenario.node[3].nic.mac1609_4 ReceivedBroadcasts 0
scalar RSUExampleScenario.node[3].nic.mac1609_4 SentPackets 0
scalar RSUExampleScenario.node[3].nic.mac1609_4 SentAcknowledgements 0
scalar RSUExampleScenario.node[3].nic.mac1609_4 RetriesExceeded 0
scalar RSUExampleScenario.node[3].nic.mac1609_4 SNIRLostPackets 0
scalar RSUExampleScenario.node[3].nic.mac1609_4 RXTXLostPackets 0
scalar RSUExampleScenario.node[3].nic.mac1609_4 TotalLostPackets 0
scalar RSUExampleScenario.node[3].nic.mac1609_4 DroppedPacketsInMac 0
scalar RSUExampleScenario.node[3].nic.mac1609_4 TooLittleTime 0
scalar RSUExampleScenario.node[3].nic.mac1609_4 TimesIntoBackoff 0
scalar RSUExampleScenario.node[3].nic.mac1609_4 SlotsBackoff 0
scalar RSUExampleScenario.node[3].nic.mac1609_4 NumInternalContention 0
scalar RSUExampleScenario.node[3].nic.mac1609_4 totalBusyTime 0
scalar RSUExampleScenario.node[3].nic.mac1609_4 retriesExceeded:count 0
attr source org_car2x_veins_modules_mac_sigRetriesExceeded
scalar RSUExampleScenario.node[3].nic.mac1609_4 sentAcks:count 0
attr source org_car2x_veins_modules_mac_sigSentAck
scalar RSUExampleScenario.node[3].nic.mac1609_4 sentPackets:count 0
attr source org_car2x_veins_modules_mac_sigSentPacket
scalar RSUExampleScenario.node[3].nic.mac1609_4 collisions:count 0
attr source org_car2x_veins_modules_mac_sigCollision
scalar RSUExampleScenario.node[3].nic.mac1609_4 channelBusy:timeavg 0
attr source org_car2x_veins_modules_mac_sigChannelBusy
scalar RSUExampleScenario.node[3].veinsmobility startTime 4
scalar RSUExampleScenario.node[3].veinsmobility totalTime 78
scalar RSUExampleScenario.node[3].veinsmobility stopTime 82.000067216073
scalar RSUExampleScenario.node[3].veinsmobility minSpeed 0
scalar RSUExampleScenario.node[3].veinsmobility maxSpeed 16.031423256339
scalar RSUExampleScenario.node[3].veinsmobility totalDistance 621.88597011939
scalar RSUExampleScenario.node[3].veinsmobility totalCO2Emission 230.2528197635
scalar RSUExampleScenario.node[6].appl generatedWSMs 0
scalar RSUExampleScenario.node[6].appl receivedWSMs 14
scalar RSUExampleScenario.node[6].appl generatedBSMs 0
scalar RSUExampleScenario.node[6].appl receivedBSMs 14
scalar RSUExampleScenario.node[6].appl generatedWSAs 0
scalar RSUExampleScenario.node[6].appl receivedWSAs 0
scalar RSUExampleScenario.node[6].nic.phy80211p busyTime 3.1359971894745e-005
scalar RSUExampleScenario.node[6].nic.mac1609_4 ReceivedUnicastPackets 0
scalar RSUExampleScenario.node[6].nic.mac1609_4 ReceivedBroadcasts 28
scalar RSUExampleScenario.node[6].nic.mac1609_4 SentPackets 0
scalar RSUExampleScenario.node[6].nic.mac1609_4 SentAcknowledgements 0
scalar RSUExampleScenario.node[6].nic.mac1609_4 RetriesExceeded 0
scalar RSUExampleScenario.node[6].nic.mac1609_4 SNIRLostPackets 0
scalar RSUExampleScenario.node[6].nic.mac1609_4 RXTXLostPackets 0
scalar RSUExampleScenario.node[6].nic.mac1609_4 TotalLostPackets 0
scalar RSUExampleScenario.node[6].nic.mac1609_4 DroppedPacketsInMac 0
scalar RSUExampleScenario.node[6].nic.mac1609_4 TooLittleTime 0
scalar RSUExampleScenario.node[6].nic.mac1609_4 TimesIntoBackoff 0
scalar RSUExampleScenario.node[6].nic.mac1609_4 SlotsBackoff 0
scalar RSUExampleScenario.node[6].nic.mac1609_4 NumInternalContention 0
scalar RSUExampleScenario.node[6].nic.mac1609_4 totalBusyTime 0.002352
scalar RSUExampleScenario.node[6].nic.mac1609_4 retriesExceeded:count 0
attr source org_car2x_veins_modules_mac_sigRetriesExceeded
scalar RSUExampleScenario.node[6].nic.mac1609_4 sentAcks:count 0
attr source org_car2x_veins_modules_mac_sigSentAck
scalar RSUExampleScenario.node[6].nic.mac1609_4 sentPackets:count 0
attr source org_car2x_veins_modules_mac_sigSentPacket
scalar RSUExampleScenario.node[6].nic.mac1609_4 collisions:count 0
attr source org_car2x_veins_modules_mac_sigCollision
scalar RSUExampleScenario.node[6].nic.mac1609_4 channelBusy:timeavg 3.1359971894745e-005
attr source org_car2x_veins_modules_mac_sigChannelBusy
scalar RSUExampleScenario.node[6].veinsmobility startTime 7
scalar RSUExampleScenario.node[6].veinsmobility totalTime 75
scalar RSUExampleScenario.node[6].veinsmobility stopTime 82.000067216073
scalar RSUExampleScenario.node[6].veinsmobility minSpeed 2.5366576599656
scalar RSUExampleScenario.node[6].veinsmobility maxSpeed 12.604220892308
scalar RSUExampleScenario.node[6].veinsmobility totalDistance 793.35439635538
scalar RSUExampleScenario.node[6].veinsmobility totalCO2Emission 205.48666773591
scalar RSUExampleScenario.node[9].appl generatedWSMs 0
scalar RSUExampleScenario.node[9].appl receivedWSMs 0
scalar RSUExampleScenario.node[9].appl generatedBSMs 0
scalar RSUExampleScenario.node[9].appl receivedBSMs 0
scalar RSUExampleScenario.node[9].appl generatedWSAs 0
scalar RSUExampleScenario.node[9].appl receivedWSAs 0
scalar RSUExampleScenario.node[9].nic.phy80211p busyTime 0
scalar RSUExampleScenario.node[9].nic.mac1609_4 ReceivedUnicastPackets 0
scalar RSUExampleScenario.node[9].nic.mac1609_4 ReceivedBroadcasts 0
scalar RSUExampleScenario.node[9].nic.mac1609_4 SentPackets 0
scalar RSUExampleScenario.node[9].nic.mac1609_4 SentAcknowledgements 0
scalar RSUExampleScenario.node[9].nic.mac1609_4 RetriesExceeded 0
scalar RSUExampleScenario.node[9].nic.mac1609_4 SNIRLostPackets 0
scalar RSUExampleScenario.node[9].nic.mac1609_4 RXTXLostPackets 0
scalar RSUExampleScenario.node[9].nic.mac1609_4 TotalLostPackets 0
scalar RSUExampleScenario.node[9].nic.mac1609_4 DroppedPacketsInMac 0
scalar RSUExampleScenario.node[9].nic.mac1609_4 TooLittleTime 0
scalar RSUExampleScenario.node[9].nic.mac1609_4 TimesIntoBackoff 0
scalar RSUExampleScenario.node[9].nic.mac1609_4 SlotsBackoff 0
scalar RSUExampleScenario.node[9].nic.mac1609_4 NumInternalContention 0
scalar RSUExampleScenario.node[9].nic.mac1609_4 totalBusyTime 0
scalar RSUExampleScenario.node[9].nic.mac1609_4 retriesExceeded:count 0
attr source org_car2x_veins_modules_mac_sigRetriesExceeded
scalar RSUExampleScenario.node[9].nic.mac1609_4 sentAcks:count 0
attr source org_car2x_veins_modules_mac_sigSentAck
scalar RSUExampleScenario.node[9].nic.mac1609_4 sentPackets:count 0
attr source org_car2x_veins_modules_mac_sigSentPacket
scalar RSUExampleScenario.node[9].nic.mac1609_4 collisions:count 0
attr source org_car2x_veins_modules_mac_sigCollision
scalar RSUExampleScenario.node[9].nic.mac1609_4 channelBusy:timeavg 0
attr source org_car2x_veins_modules_mac_sigChannelBusy
scalar RSUExampleScenario.node[9].veinsmobility startTime 10
scalar RSUExampleScenario.node[9].veinsmobility totalTime 72
scalar RSUExampleScenario.node[9].veinsmobility stopTime 82.000067216073
scalar RSUExampleScenario.node[9].veinsmobility minSpeed 1.5749046588317
scalar RSUExampleScenario.node[9].veinsmobility maxSpeed 10.940717534247
scalar RSUExampleScenario.node[9].veinsmobility totalDistance 720.53883517937
scalar RSUExampleScenario.node[9].veinsmobility totalCO2Emission 151.55881931781
scalar RSUExampleScenario.node[11].appl generatedWSMs 0
scalar RSUExampleScenario.node[11].appl receivedWSMs 0
scalar RSUExampleScenario.node[11].appl generatedBSMs 0
scalar RSUExampleScenario.node[11].appl receivedBSMs 0
scalar RSUExampleScenario.node[11].appl generatedWSAs 0
scalar RSUExampleScenario.node[11].appl receivedWSAs 0
scalar RSUExampleScenario.node[11].nic.phy80211p busyTime 0
scalar RSUExampleScenario.node[11].nic.mac1609_4 ReceivedUnicastPackets 0
scalar RSUExampleScenario.node[11].nic.mac1609_4 ReceivedBroadcasts 0
scalar RSUExampleScenario.node[11].nic.mac1609_4 SentPackets 0
scalar RSUExampleScenario.node[11].nic.mac1609_4 SentAcknowledgements 0
scalar RSUExampleScenario.node[11].nic.mac1609_4 RetriesExceeded 0
scalar RSUExampleScenario.node[11].nic.mac1609_4 SNIRLostPackets 0
scalar RSUExampleScenario.node[11].nic.mac1609_4 RXTXLostPackets 0
scalar RSUExampleScenario.node[11].nic.mac1609_4 TotalLostPackets 0
scalar RSUExampleScenario.node[11].nic.mac1609_4 DroppedPacketsInMac 0
scalar RSUExampleScenario.node[11].nic.mac1609_4 TooLittleTime 0
scalar RSUExampleScenario.node[11].nic.mac1609_4 TimesIntoBackoff 0
scalar RSUExampleScenario.node[11].nic.mac1609_4 SlotsBackoff 0
scalar RSUExampleScenario.node[11].nic.mac1609_4 NumInternalContention 0
scalar RSUExampleScenario.node[11].nic.mac1609_4 totalBusyTime 0
scalar RSUExampleScenario.node[11].nic.mac1609_4 retriesExceeded:count 0
attr source org_car2x_veins_modules_mac_sigRetriesExceeded
scalar RSUExampleScenario.node[11].nic.mac1609_4 sentAcks:count 0
attr source org_car2x_veins_modules_mac_sigSentAck
scalar RSUExampleScenario.node[11].nic.mac1609_4 sentPackets:count 0
attr source org_car2x_veins_modules_mac_sigSentPacket
scalar RSUExampleScenario.node[11].nic.mac1609_4 collisions:count 0
attr source org_car2x_veins_modules_mac_sigCollision
scalar RSUExampleScenario.node[11].nic.mac1609_4 channelBusy:timeavg 0
attr source org_car2x_veins_modules_mac_sigChannelBusy
scalar RSUExampleScenario.node[11].veinsmobility startTime 13
scalar RSUExampleScenario.node[11].veinsmobility totalTime 69
scalar RSUExampleScenario.node[11].veinsmobility stopTime 82.000067216073
scalar RSUExampleScenario.node[11].veinsmobility minSpeed 2.4256962361047
scalar RSUExampleScenario.node[11].veinsmobility maxSpeed 10.959424543577
scalar RSUExampleScenario.node[11].veinsmobility totalDistance 693.08702019293
scalar RSUExampleScenario.node[11].veinsmobility totalCO2Emission 148.80184598527
scalar RSUExampleScenario.node[12].appl generatedWSMs 0
scalar RSUExampleScenario.node[12].appl receivedWSMs 0
scalar RSUExampleScenario.node[12].appl generatedBSMs 0
scalar RSUExampleScenario.node[12].appl receivedBSMs 0
scalar RSUExampleScenario.node[12].appl generatedWSAs 0
scalar RSUExampleScenario.node[12].appl receivedWSAs 0
scalar RSUExampleScenario.node[12].nic.phy80211p busyTime 0
scalar RSUExampleScenario.node[12].nic.mac1609_4 ReceivedUnicastPackets 0
scalar RSUExampleScenario.node[12].nic.mac1609_4 ReceivedBroadcasts 0
scalar RSUExampleScenario.node[12].nic.mac1609_4 SentPackets 0
scalar RSUExampleScenario.node[12].nic.mac1609_4 SentAcknowledgements 0
scalar RSUExampleScenario.node[12].nic.mac1609_4 RetriesExceeded 0
scalar RSUExampleScenario.node[12].nic.mac1609_4 SNIRLostPackets 0
scalar RSUExampleScenario.node[12].nic.mac1609_4 RXTXLostPackets 0
scalar RSUExampleScenario.node[12].nic.mac1609_4 TotalLostPackets 0
scalar RSUExampleScenario.node[12].nic.mac1609_4 DroppedPacketsInMac 0
scalar RSUExampleScenario.node[12].nic.mac1609_4 TooLittleTime 0
scalar RSUExampleScenario.node[12].nic.mac1609_4 TimesIntoBackoff 0
scalar RSUExampleScenario.node[12].nic.mac1609_4 SlotsBackoff 0
scalar RSUExampleScenario.node[12].nic.mac1609_4 NumInternalContention 0
scalar RSUExampleScenario.node[12].nic.mac1609_4 totalBusyTime 0
scalar RSUExampleScenario.node[12].nic.mac1609_4 retriesExceeded:count 0
attr source org_car2x_veins_modules_mac_sigRetriesExceeded
scalar RSUExampleScenario.node[12].nic.mac1609_4 sentAcks:count 0
attr source org_car2x_veins_modules_mac_sigSentAck
scalar RSUExampleScenario.node[12].nic.mac1609_4 sentPackets:count 0
attr source org_car2x_veins_modules_mac_sigSentPacket
scalar RSUExampleScenario.node[12].nic.mac1609_4 collisions:count 0
attr source org_car2x_veins_modules_mac_sigCollision
scalar RSUExampleScenario.node[12].nic.mac1609_4 channelBusy:timeavg 0
attr source org_car2x_veins_modules_mac_sigChannelBusy
scalar RSUExampleScenario.node[12].veinsmobility startTime 14
scalar RSUExampleScenario.node[12].veinsmobility totalTime 68
scalar RSUExampleScenario.node[12].veinsmobility stopTime 82.000067216073
scalar RSUExampleScenario.node[12].veinsmobility minSpeed 1.0311802363199
scalar RSUExampleScenario.node[12].veinsmobility maxSpeed 12.676751495921
scalar RSUExampleScenario.node[12].veinsmobility totalDistance 572.36045893051
scalar RSUExampleScenario.node[12].veinsmobility totalCO2Emission 196.92627856697
scalar RSUExampleScenario.node[14].appl generatedWSMs 0
scalar RSUExampleScenario.node[14].appl receivedWSMs 0
scalar RSUExampleScenario.node[14].appl generatedBSMs 0
scalar RSUExampleScenario.node[14].appl receivedBSMs 0
scalar RSUExampleScenario.node[14].appl generatedWSAs 0
scalar RSUExampleScenario.node[14].appl receivedWSAs 0
scalar RSUExampleScenario.node[14].nic.phy80211p busyTime 0
scalar RSUExampleScenario.node[14].nic.mac1609_4 ReceivedUnicastPackets 0
scalar RSUExampleScenario.node[14].nic.mac1609_4 ReceivedBroadcasts 0
scalar RSUExampleScenario.node[14].nic.mac1609_4 SentPackets 0
scalar RSUExampleScenario.node[14].nic.mac1609_4 SentAcknowledgements 0
scalar RSUExampleScenario.node[14].nic.mac1609_4 RetriesExceeded 0
scalar RSUExampleScenario.node[14].nic.mac1609_4 SNIRLostPackets 0
scalar RSUExampleScenario.node[14].nic.mac1609_4 RXTXLostPackets 0
scalar RSUExampleScenario.node[14].nic.mac1609_4 TotalLostPackets 0
scalar RSUExampleScenario.node[14].nic.mac1609_4 DroppedPacketsInMac 0
scalar RSUExampleScenario.node[14].nic.mac1609_4 TooLittleTime 0
scalar RSUExampleScenario.node[14].nic.mac1609_4 TimesIntoBackoff 0
scalar RSUExampleScenario.node[14].nic.mac1609_4 SlotsBackoff 0
scalar RSUExampleScenario.node[14].nic.mac1609_4 NumInternalContention 0
scalar RSUExampleScenario.node[14].nic.mac1609_4 totalBusyTime 0
scalar RSUExampleScenario.node[14].nic.mac1609_4 retriesExceeded:count 0
attr source org_car2x_veins_modules_mac_sigRetriesExceeded
scalar RSUExampleScenario.node[14].nic.mac1609_4 sentAcks:count 0
attr source org_car2x_veins_modules_mac_sigSentAck
scalar RSUExampleScenario.node[14].nic.mac1609_4 sentPackets:count 0
attr source org_car2x_veins_modules_mac_sigSentPacket
scalar RSUExampleScenario.node[14].nic.mac1609_4 collisions:count 0
attr source org_car2x_veins_modules_mac_sigCollision
scalar RSUExampleScenario.node[14].nic.mac1609_4 channelBusy:timeavg 0
attr source org_car2x_veins_modules_mac_sigChannelBusy
scalar RSUExampleScenario.node[14].veinsmobility startTime 15
scalar RSUExampleScenario.node[14].veinsmobility totalTime 67
scalar RSUExampleScenario.node[14].veinsmobility stopTime 82.000067216073
scalar RSUExampleScenario.node[14].veinsmobility minSpeed 1.5644941205392
scalar RSUExampleScenario.node[14].veinsmobility maxSpeed 13.967460479135
scalar RSUExampleScenario.node[14].veinsmobility totalDistance 821.64416876625
scalar RSUExampleScenario.node[14].veinsmobility totalCO2Emission 174.20139471654
scalar RSUExampleScenario.node[15].appl generatedWSMs 0
scalar RSUExampleScenario.node[15].appl receivedWSMs 0
scalar RSUExampleScenario.node[15].appl generatedBSMs 0
scalar RSUExampleScenario.node[15].appl receivedBSMs 0
scalar RSUExampleScenario.node[15].appl generatedWSAs 0
scalar RSUExampleScenario.node[15].appl receivedWSAs 0
scalar RSUExampleScenario.node[15].nic.phy80211p busyTime 0
scalar RSUExampleScenario.node[15].nic.mac1609_4 ReceivedUnicastPackets 0
scalar RSUExampleScenario.node[15].nic.mac1609_4 ReceivedBroadcasts 0
scalar RSUExampleScenario.node[15].nic.mac1609_4 SentPackets 0
scalar RSUExampleScenario.node[15].nic.mac1609_4 SentAcknowledgements 0
scalar RSUExampleScenario.node[15].nic.mac1609_4 RetriesExceeded 0
scalar RSUExampleScenario.node[15].nic.mac1609_4 SNIRLostPackets 0
scalar RSUExampleScenario.node[15].nic.mac1609_4 RXTXLostPackets 0
scalar RSUExampleScenario.node[15].nic.mac1609_4 TotalLostPackets 0
scalar RSUExampleScenario.node[15].nic.mac1609_4 DroppedPacketsInMac 0
scalar RSUExampleScenario.node[15].nic.mac1609_4 TooLittleTime 0
scalar RSUExampleScenario.node[15].nic.mac1609_4 TimesIntoBackoff 0
scalar RSUExampleScenario.node[15].nic.mac1609_4 SlotsBackoff 0
scalar RSUExampleScenario.node[15].nic.mac1609_4 NumInternalContention 0
scalar RSUExampleScenario.node[15].nic.mac1609_4 totalBusyTime 0
scalar RSUExampleScenario.node[15].nic.mac1609_4 retriesExceeded:count 0
attr source org_car2x_veins_modules_mac_sigRetriesExceeded
scalar RSUExampleScenario.node[15].nic.mac1609_4 sentAcks:count 0
attr source org_car2x_veins_modules_mac_sigSentAck
scalar RSUExampleScenario.node[15].nic.mac1609_4 sentPackets:count 0
attr source org_car2x_veins_modules_mac_sigSentPacket
scalar RSUExampleScenario.node[15].nic.mac1609_4 collisions:count 0
attr source org_car2x_veins_modules_mac_sigCollision
scalar RSUExampleScenario.node[15].nic.mac1609_4 channelBusy:timeavg 0
attr source org_car2x_veins_modules_mac_sigChannelBusy
scalar RSUExampleScenario.node[15].veinsmobility startTime 16
scalar RSUExampleScenario.node[15].veinsmobility totalTime 66
scalar RSUExampleScenario.node[15].veinsmobility stopTime 82.000067216073
scalar RSUExampleScenario.node[15].veinsmobility minSpeed 1.9188389349496
scalar RSUExampleScenario.node[15].veinsmobility maxSpeed 11.169299659386
scalar RSUExampleScenario.node[15].veinsmobility totalDistance 669.73468254385
scalar RSUExampleScenario.node[15].veinsmobility totalCO2Emission 145.49325151621
scalar RSUExampleScenario.node[16].appl generatedWSMs 0
scalar RSUExampleScenario.node[16].appl receivedWSMs 0
scalar RSUExampleScenario.node[16].appl generatedBSMs 0
scalar RSUExampleScenario.node[16].appl receivedBSMs 0
scalar RSUExampleScenario.node[16].appl generatedWSAs 0
scalar RSUExampleScenario.node[16].appl receivedWSAs 0
scalar RSUExampleScenario.node[16].nic.phy80211p busyTime 0
scalar RSUExampleScenario.node[16].nic.mac1609_4 ReceivedUnicastPackets 0
scalar RSUExampleScenario.node[16].nic.mac1609_4 ReceivedBroadcasts 0
scalar RSUExampleScenario.node[16].nic.mac1609_4 SentPackets 0
scalar RSUExampleScenario.node[16].nic.mac1609_4 SentAcknowledgements 0
scalar RSUExampleScenario.node[16].nic.mac1609_4 RetriesExceeded 0
scalar RSUExampleScenario.node[16].nic.mac1609_4 SNIRLostPackets 0
scalar RSUExampleScenario.node[16].nic.mac1609_4 RXTXLostPackets 0
scalar RSUExampleScenario.node[16].nic.mac1609_4 TotalLostPackets 0
scalar RSUExampleScenario.node[16].nic.mac1609_4 DroppedPacketsInMac 0
scalar RSUExampleScenario.node[16].nic.mac1609_4 TooLittleTime 0
scalar RSUExampleScenario.node[16].nic.mac1609_4 TimesIntoBackoff 0
scalar RSUExampleScenario.node[16].nic.mac1609_4 SlotsBackoff 0
scalar RSUExampleScenario.node[16].nic.mac1609_4 NumInternalContention 0
scalar RSUExampleScenario.node[16].nic.mac1609_4 totalBusyTime 0
scalar RSUExampleScenario.node[16].nic.mac1609_4 retriesExceeded:count 0
attr source org_car2x_veins_modules_mac_sigRetriesExceeded
scalar RSUExampleScenario.node[16].nic.mac1609_4 sentAcks:count 0
attr source org_car2x_veins_modules_mac_sigSentAck
scalar RSUExampleScenario.node[16].nic.mac1609_4 sentPackets:count 0
attr source org_car2x_veins_modules_mac_sigSentPacket
scalar RSUExampleScenario.node[16].nic.mac1609_4 collisions:count 0
attr source org_car2x_veins_modules_mac_sigCollision
scalar RSUExampleScenario.node[16].nic.mac1609_4 channelBusy:timeavg 0
attr source org_car2x_veins_modules_mac_sigChannelBusy
scalar RSUExampleScenario.node[16].veinsmobility startTime 17
scalar RSUExampleScenario.node[16].veinsmobility totalTime 65
scalar RSUExampleScenario.node[16].veinsmobility stopTime 82.000067216073
scalar RSUExampleScenario.node[16].veinsmobility minSpeed 0.39027932605854
scalar RSUExampleScenario.node[16].veinsmobility maxSpeed 16.116038816254
scalar RSUExampleScenario.node[16].veinsmobility totalDistance 668.41014799189
scalar RSUExampleScenario.node[16].veinsmobility totalCO2Emission 224.84146611515
scalar RSUExampleScenario.node[18].appl generatedWSMs 0
scalar RSUExampleScenario.node[18].appl receivedWSMs 0
scalar RSUExampleScenario.node[18].appl generatedBSMs 0
scalar RSUExampleScenario.node[18].appl receivedBSMs 0
scalar RSUExampleScenario.node[18].appl generatedWSAs 0
scalar RSUExampleScenario.node[18].appl receivedWSAs 0
scalar RSUExampleScenario.node[18].nic.phy80211p busyTime 0
scalar RSUExampleScenario.node[18].nic.mac1609_4 ReceivedUnicastPackets 0
scalar RSUExampleScenario.node[18].nic.mac1609_4 ReceivedBroadcasts 0
scalar RSUExampleScenario.node[18].nic.mac1609_4 SentPackets 0
scalar RSUExampleScenario.node[18].nic.mac1609_4 SentAcknowledgements 0
scalar RSUExampleScenario.node[18].nic.mac1609_4 RetriesExceeded 0
scalar RSUExampleScenario.node[18].nic.mac1609_4 SNIRLostPackets 0
scalar RSUExampleScenario.node[18].nic.mac1609_4 RXTXLostPackets 0
scalar RSUExampleScenario.node[18].nic.mac1609_4 TotalLostPackets 0
scalar RSUExampleScenario.node[18].nic.mac1609_4 DroppedPacketsInMac 0
scalar RSUExampleScenario.node[18].nic.mac1609_4 TooLittleTime 0
scalar RSUExampleScenario.node[18].nic.mac1609_4 TimesIntoBackoff 0
scalar RSUExampleScenario.node[18].nic.mac1609_4 SlotsBackoff 0
scalar RSUExampleScenario.node[18].nic.mac1609_4 NumInternalContention 0
scalar RSUExampleScenario.node[18].nic.mac1609_4 totalBusyTime 0
scalar RSUExampleScenario.node[18].nic.mac1609_4 retriesExceeded:count 0
attr source org_car2x_veins_modules_mac_sigRetriesExceeded
scalar RSUExampleScenario.node[18].nic.mac1609_4 sentAcks:count 0
attr source org_car2x_veins_modules_mac_sigSentAck
scalar RSUExampleScenario.node[18].nic.mac1609_4 sentPackets:count 0
attr source org_car2x_veins_modules_mac_sigSentPacket
scalar RSUExampleScenario.node[18].nic.mac1609_4 collisions:count 0
attr source org_car2x_veins_modules_mac_sigCollision
scalar RSUExampleScenario.node[18].nic.mac1609_4 channelBusy:timeavg 0
attr source org_car2x_veins_modules_mac_sigChannelBusy
scalar RSUExampleScenario.node[18].veinsmobility startTime 20
scalar RSUExampleScenario.node[18].veinsmobility totalTime 62
scalar RSUExampleScenario.node[18].veinsmobility stopTime 82.000067216073
scalar RSUExampleScenario.node[18].veinsmobility minSpeed 2.450429067295
scalar RSUExampleScenario.node[18].veinsmobility maxSpeed 9.5172136135741
scalar RSUExampleScenario.node[18].veinsmobility totalDistance 540.29269681334
scalar RSUExampleScenario.node[18].veinsmobility totalCO2Emission 120.04377250977
scalar RSUExampleScenario.node[19].appl generatedWSMs 0
scalar RSUExampleScenario.node[19].appl receivedWSMs 11
scalar RSUExampleScenario.node[19].appl generatedBSMs 0
scalar RSUExampleScenario.node[19].appl receivedBSMs 11
scalar RSUExampleScenario.node[19].appl generatedWSAs 0
scalar RSUExampleScenario.node[19].appl receivedWSAs 0
scalar RSUExampleScenario.node[19].nic.phy80211p busyTime 3.0295048585013e-005
scalar RSUExampleScenario.node[19].nic.mac1609_4 ReceivedUnicastPackets 0
scalar RSUExampleScenario.node[19].nic.mac1609_4 ReceivedBroadcasts 22
scalar RSUExampleScenario.node[19].nic.mac1609_4 SentPackets 0
scalar RSUExampleScenario.node[19].nic.mac1609_4 SentAcknowledgements 0
scalar RSUExampleScenario.node[19].nic.mac1609_4 RetriesExceeded 0
scalar RSUExampleScenario.node[19].nic.mac1609_4 SNIRLostPackets 0
scalar RSUExampleScenario.node[19].nic.mac1609_4 RXTXLostPackets 0
scalar RSUExampleScenario.node[19].nic.mac1609_4 TotalLostPackets 0
scalar RSUExampleScenario.node[19].nic.mac1609_4 DroppedPacketsInMac 0
scalar RSUExampleScenario.node[19].nic.mac1609_4 TooLittleTime 0
scalar RSUExampleScenario.node[19].nic.mac1609_4 TimesIntoBackoff 0
scalar RSUExampleScenario.node[19].nic.mac1609_4 SlotsBackoff 0
scalar RSUExampleScenario.node[19].nic.mac1609_4 NumInternalContention 0
scalar RSUExampleScenario.node[19].nic.mac1609_4 totalBusyTime 0.001848
scalar RSUExampleScenario.node[19].nic.mac1609_4 retriesExceeded:count 0
attr source org_car2x_veins_modules_mac_sigRetriesExceeded
scalar RSUExampleScenario.node[19].nic.mac1609_4 sentAcks:count 0
attr source org_car2x_veins_modules_mac_sigSentAck
scalar RSUExampleScenario.node[19].nic.mac1609_4 sentPackets:count 0
attr source org_car2x_veins_modules_mac_sigSentPacket
scalar RSUExampleScenario.node[19].nic.mac1609_4 collisions:count 0
attr source org_car2x_veins_modules_mac_sigCollision
scalar RSUExampleScenario.node[19].nic.mac1609_4 channelBusy:timeavg 3.0295048585013e-005
attr source org_car2x_veins_modules_mac_sigChannelBusy
scalar RSUExampleScenario.node[19].veinsmobility startTime 21
scalar RSUExampleScenario.node[19].veinsmobility totalTime 61
scalar RSUExampleScenario.node[19].veinsmobility stopTime 82.000067216073
scalar RSUExampleScenario.node[19].veinsmobility minSpeed 0
scalar RSUExampleScenario.node[19].veinsmobility maxSpeed 17.251647558827
scalar RSUExampleScenario.node[19].veinsmobility totalDistance 543.65282096806
scalar RSUExampleScenario.node[19].veinsmobility totalCO2Emission 169.20042559521
scalar RSUExampleScenario.node[21].appl generatedWSMs 0
scalar RSUExampleScenario.node[21].appl receivedWSMs 10
scalar RSUExampleScenario.node[21].appl generatedBSMs 0
scalar RSUExampleScenario.node[21].appl receivedBSMs 10
scalar RSUExampleScenario.node[21].appl generatedWSAs 0
scalar RSUExampleScenario.node[21].appl receivedWSAs 0
scalar RSUExampleScenario.node[21].nic.phy80211p busyTime 2.8474543831406e-005
scalar RSUExampleScenario.node[21].nic.mac1609_4 ReceivedUnicastPackets 0
scalar RSUExampleScenario.node[21].nic.mac1609_4 ReceivedBroadcasts 20
scalar RSUExampleScenario.node[21].nic.mac1609_4 SentPackets 0
scalar RSUExampleScenario.node[21].nic.mac1609_4 SentAcknowledgements 0
scalar RSUExampleScenario.node[21].nic.mac1609_4 RetriesExceeded 0
scalar RSUExampleScenario.node[21].nic.mac1609_4 SNIRLostPackets 0
scalar RSUExampleScenario.node[21].nic.mac1609_4 RXTXLostPackets 0
scalar RSUExampleScenario.node[21].nic.mac1609_4 TotalLostPackets 0
scalar RSUExampleScenario.node[21].nic.mac1609_4 DroppedPacketsInMac 0
scalar RSUExampleScenario.node[21].nic.mac1609_4 TooLittleTime 0
scalar RSUExampleScenario.node[21].nic.mac1609_4 TimesIntoBackoff 0
scalar RSUExampleScenario.node[21].nic.mac1609_4 SlotsBackoff 0
scalar RSUExampleScenario.node[21].nic.mac1609_4 NumInternalContention 0
scalar RSUExampleScenario.node[21].nic.mac1609_4 totalBusyTime 0.00168
scalar RSUExampleScenario.node[21].nic.mac1609_4 retriesExceeded:count 0
attr source org_car2x_veins_modules_mac_sigRetriesExceeded
scalar RSUExampleScenario.node[21].nic.mac1609_4 sentAcks:count 0
attr source org_car2x_veins_modules_mac_sigSentAck
scalar RSUExampleScenario.node[21].nic.mac1609_4 sentPackets:count 0
attr source org_car2x_veins_modules_mac_sigSentPacket
scalar RSUExampleScenario.node[21].nic.mac1609_4 collisions:count 0
attr source org_car2x_veins_modules_mac_sigCollision
scalar RSUExampleScenario.node[21].nic.mac1609_4 channelBusy:timeavg 2.8474543831406e-005
attr source org_car2x_veins_modules_mac_sigChannelBusy
scalar RSUExampleScenario.node[21].veinsmobility startTime 23
scalar RSUExampleScenario.node[21].veinsmobility totalTime 59
scalar RSUExampleScenario.node[21].veinsmobility stopTime 82.000067216073
scalar RSUExampleScenario.node[21].veinsmobility minSpeed 1.3519775079098
scalar RSUExampleScenario.node[21].veinsmobility maxSpeed 16.53170226544
scalar RSUExampleScenario.node[21].veinsmobility totalDistance 658.74740867111
scalar RSUExampleScenario.node[21].veinsmobility totalCO2Emission 214.96796849459
scalar RSUExampleScenario.node[23].appl generatedWSMs 0
scalar RSUExampleScenario.node[23].appl receivedWSMs 0
scalar RSUExampleScenario.node[23].appl generatedBSMs 0
scalar RSUExampleScenario.node[23].appl receivedBSMs 0
scalar RSUExampleScenario.node[23].appl generatedWSAs 0
scalar RSUExampleScenario.node[23].appl receivedWSAs 0
scalar RSUExampleScenario.node[23].nic.phy80211p busyTime 0
scalar RSUExampleScenario.node[23].nic.mac1609_4 ReceivedUnicastPackets 0
scalar RSUExampleScenario.node[23].nic.mac1609_4 ReceivedBroadcasts 0
scalar RSUExampleScenario.node[23].nic.mac1609_4 SentPackets 0
scalar RSUExampleScenario.node[23].nic.mac1609_4 SentAcknowledgements 0
scalar RSUExampleScenario.node[23].nic.mac1609_4 RetriesExceeded 0
scalar RSUExampleScenario.node[23].nic.mac1609_4 SNIRLostPackets 0
scalar RSUExampleScenario.node[23].nic.mac1609_4 RXTXLostPackets 0
scalar RSUExampleScenario.node[23].nic.mac1609_4 TotalLostPackets 0
scalar RSUExampleScenario.node[23].nic.mac1609_4 DroppedPacketsInMac 0
scalar RSUExampleScenario.node[23].nic.mac1609_4 TooLittleTime 0
scalar RSUExampleScenario.node[23].nic.mac1609_4 TimesIntoBackoff 0
scalar RSUExampleScenario.node[23].nic.mac1609_4 SlotsBackoff 0
scalar RSUExampleScenario.node[23].nic.mac1609_4 NumInternalContention 0
scalar RSUExampleScenario.node[23].nic.mac1609_4 totalBusyTime 0
scalar RSUExampleScenario.node[23].nic.mac1609_4 retriesExceeded:count 0
attr source org_car2x_veins_modules_mac_sigRetriesExceeded
scalar RSUExampleScenario.node[23].nic.mac1609_4 sentAcks:count 0
attr source org_car2x_veins_modules_mac_sigSentAck
scalar RSUExampleScenario.node[23].nic.mac1609_4 sentPackets:count 0
attr source org_car2x_veins_modules_mac_sigSentPacket
[...]
scalar RSUExampleScenario.node[70].veinsmobility totalDistance 45.762927974677
scalar RSUExampleScenario.node[70].veinsmobility totalCO2Emission 25.610103412591
scalar RSUExampleScenario.node[71].appl generatedWSMs 0
scalar RSUExampleScenario.node[71].appl receivedWSMs 2
scalar RSUExampleScenario.node[71].appl generatedBSMs 0
scalar RSUExampleScenario.node[71].appl receivedBSMs 2
scalar RSUExampleScenario.node[71].appl generatedWSAs 0
scalar RSUExampleScenario.node[71].appl receivedWSAs 0
scalar RSUExampleScenario.node[71].nic.phy80211p busyTime 4.9999579903073e-005
scalar RSUExampleScenario.node[71].nic.mac1609_4 ReceivedUnicastPackets 0
scalar RSUExampleScenario.node[71].nic.mac1609_4 ReceivedBroadcasts 4
scalar RSUExampleScenario.node[71].nic.mac1609_4 SentPackets 0
scalar RSUExampleScenario.node[71].nic.mac1609_4 SentAcknowledgements 0
scalar RSUExampleScenario.node[71].nic.mac1609_4 RetriesExceeded 0
scalar RSUExampleScenario.node[71].nic.mac1609_4 SNIRLostPackets 0
scalar RSUExampleScenario.node[71].nic.mac1609_4 RXTXLostPackets 0
scalar RSUExampleScenario.node[71].nic.mac1609_4 TotalLostPackets 0
scalar RSUExampleScenario.node[71].nic.mac1609_4 DroppedPacketsInMac 0
scalar RSUExampleScenario.node[71].nic.mac1609_4 TooLittleTime 0
scalar RSUExampleScenario.node[71].nic.mac1609_4 TimesIntoBackoff 0
scalar RSUExampleScenario.node[71].nic.mac1609_4 SlotsBackoff 0
scalar RSUExampleScenario.node[71].nic.mac1609_4 NumInternalContention 0
scalar RSUExampleScenario.node[71].nic.mac1609_4 totalBusyTime 0.000336
scalar RSUExampleScenario.node[71].nic.mac1609_4 retriesExceeded:count 0
attr source org_car2x_veins_modules_mac_sigRetriesExceeded
scalar RSUExampleScenario.node[71].nic.mac1609_4 sentAcks:count 0
attr source org_car2x_veins_modules_mac_sigSentAck
scalar RSUExampleScenario.node[71].nic.mac1609_4 sentPackets:count 0
attr source org_car2x_veins_modules_mac_sigSentPacket
scalar RSUExampleScenario.node[71].nic.mac1609_4 collisions:count 0
attr source org_car2x_veins_modules_mac_sigCollision
scalar RSUExampleScenario.node[71].nic.mac1609_4 channelBusy:timeavg 4.9988624995117e-005
attr source org_car2x_veins_modules_mac_sigChannelBusy
scalar RSUExampleScenario.node[71].veinsmobility startTime 74
scalar RSUExampleScenario.node[71].veinsmobility totalTime 8
scalar RSUExampleScenario.node[71].veinsmobility stopTime 82.000067216073
scalar RSUExampleScenario.node[71].veinsmobility minSpeed 2.5030969839776
scalar RSUExampleScenario.node[71].veinsmobility maxSpeed 11.872585056978
scalar RSUExampleScenario.node[71].veinsmobility totalDistance 58.636844209217
scalar RSUExampleScenario.node[71].veinsmobility totalCO2Emission 28.103398499716
scalar RSUExampleScenario.node[72].appl generatedWSMs 0
scalar RSUExampleScenario.node[72].appl receivedWSMs 0
scalar RSUExampleScenario.node[72].appl generatedBSMs 0
scalar RSUExampleScenario.node[72].appl receivedBSMs 0
scalar RSUExampleScenario.node[72].appl generatedWSAs 0
scalar RSUExampleScenario.node[72].appl receivedWSAs 0
scalar RSUExampleScenario.node[72].nic.phy80211p busyTime 0
scalar RSUExampleScenario.node[72].nic.mac1609_4 ReceivedUnicastPackets 0
scalar RSUExampleScenario.node[72].nic.mac1609_4 ReceivedBroadcasts 0
scalar RSUExampleScenario.node[72].nic.mac1609_4 SentPackets 0
scalar RSUExampleScenario.node[72].nic.mac1609_4 SentAcknowledgements 0
scalar RSUExampleScenario.node[72].nic.mac1609_4 RetriesExceeded 0
scalar RSUExampleScenario.node[72].nic.mac1609_4 SNIRLostPackets 0
scalar RSUExampleScenario.node[72].nic.mac1609_4 RXTXLostPackets 0
scalar RSUExampleScenario.node[72].nic.mac1609_4 TotalLostPackets 0
scalar RSUExampleScenario.node[72].nic.mac1609_4 DroppedPacketsInMac 0
scalar RSUExampleScenario.node[72].nic.mac1609_4 TooLittleTime 0
scalar RSUExampleScenario.node[72].nic.mac1609_4 TimesIntoBackoff 0
scalar RSUExampleScenario.node[72].nic.mac1609_4 SlotsBackoff 0
scalar RSUExampleScenario.node[72].nic.mac1609_4 NumInternalContention 0
scalar RSUExampleScenario.node[72].nic.mac1609_4 totalBusyTime 0
scalar RSUExampleScenario.node[72].nic.mac1609_4 retriesExceeded:count 0
attr source org_car2x_veins_modules_mac_sigRetriesExceeded
scalar RSUExampleScenario.node[72].nic.mac1609_4 sentAcks:count 0
attr source org_car2x_veins_modules_mac_sigSentAck
scalar RSUExampleScenario.node[72].nic.mac1609_4 sentPackets:count 0
attr source org_car2x_veins_modules_mac_sigSentPacket
scalar RSUExampleScenario.node[72].nic.mac1609_4 collisions:count 0
attr source org_car2x_veins_modules_mac_sigCollision
scalar RSUExampleScenario.node[72].nic.mac1609_4 channelBusy:timeavg 0
attr source org_car2x_veins_modules_mac_sigChannelBusy
scalar RSUExampleScenario.node[72].veinsmobility startTime 74
scalar RSUExampleScenario.node[72].veinsmobility totalTime 8
scalar RSUExampleScenario.node[72].veinsmobility stopTime 82.000067216073
scalar RSUExampleScenario.node[72].veinsmobility minSpeed 1.4347570260055
scalar RSUExampleScenario.node[72].veinsmobility maxSpeed 7.2086199395126
scalar RSUExampleScenario.node[72].veinsmobility totalDistance 37.9299101715
scalar RSUExampleScenario.node[72].veinsmobility totalCO2Emission 17.503668003837
scalar RSUExampleScenario.node[73].appl generatedWSMs 0
scalar RSUExampleScenario.node[73].appl receivedWSMs 0
scalar RSUExampleScenario.node[73].appl generatedBSMs 0
scalar RSUExampleScenario.node[73].appl receivedBSMs 0
scalar RSUExampleScenario.node[73].appl generatedWSAs 0
scalar RSUExampleScenario.node[73].appl receivedWSAs 0
scalar RSUExampleScenario.node[73].nic.phy80211p busyTime 0
scalar RSUExampleScenario.node[73].nic.mac1609_4 ReceivedUnicastPackets 0
scalar RSUExampleScenario.node[73].nic.mac1609_4 ReceivedBroadcasts 0
scalar RSUExampleScenario.node[73].nic.mac1609_4 SentPackets 0
scalar RSUExampleScenario.node[73].nic.mac1609_4 SentAcknowledgements 0
scalar RSUExampleScenario.node[73].nic.mac1609_4 RetriesExceeded 0
scalar RSUExampleScenario.node[73].nic.mac1609_4 SNIRLostPackets 0
scalar RSUExampleScenario.node[73].nic.mac1609_4 RXTXLostPackets 0
scalar RSUExampleScenario.node[73].nic.mac1609_4 TotalLostPackets 0
scalar RSUExampleScenario.node[73].nic.mac1609_4 DroppedPacketsInMac 0
scalar RSUExampleScenario.node[73].nic.mac1609_4 TooLittleTime 0
scalar RSUExampleScenario.node[73].nic.mac1609_4 TimesIntoBackoff 0
scalar RSUExampleScenario.node[73].nic.mac1609_4 SlotsBackoff 0
scalar RSUExampleScenario.node[73].nic.mac1609_4 NumInternalContention 0
scalar RSUExampleScenario.node[73].nic.mac1609_4 totalBusyTime 0
scalar RSUExampleScenario.node[73].nic.mac1609_4 retriesExceeded:count 0
attr source org_car2x_veins_modules_mac_sigRetriesExceeded
scalar RSUExampleScenario.node[73].nic.mac1609_4 sentAcks:count 0
attr source org_car2x_veins_modules_mac_sigSentAck
scalar RSUExampleScenario.node[73].nic.mac1609_4 sentPackets:count 0
attr source org_car2x_veins_modules_mac_sigSentPacket
scalar RSUExampleScenario.node[73].nic.mac1609_4 collisions:count 0
attr source org_car2x_veins_modules_mac_sigCollision
scalar RSUExampleScenario.node[73].nic.mac1609_4 channelBusy:timeavg 0
attr source org_car2x_veins_modules_mac_sigChannelBusy
scalar RSUExampleScenario.node[73].veinsmobility startTime 76
scalar RSUExampleScenario.node[73].veinsmobility totalTime 6
scalar RSUExampleScenario.node[73].veinsmobility stopTime 82.000067216073
scalar RSUExampleScenario.node[73].veinsmobility minSpeed 2.4256056307117
scalar RSUExampleScenario.node[73].veinsmobility maxSpeed 11.207303819135
scalar RSUExampleScenario.node[73].veinsmobility totalDistance 42.941434779145
scalar RSUExampleScenario.node[73].veinsmobility totalCO2Emission 24.236880424725
scalar RSUExampleScenario.node[75].appl generatedWSMs 0
scalar RSUExampleScenario.node[75].appl receivedWSMs 0
scalar RSUExampleScenario.node[75].appl generatedBSMs 0
scalar RSUExampleScenario.node[75].appl receivedBSMs 0
scalar RSUExampleScenario.node[75].appl generatedWSAs 0
scalar RSUExampleScenario.node[75].appl receivedWSAs 0
scalar RSUExampleScenario.node[75].nic.phy80211p busyTime 0
scalar RSUExampleScenario.node[75].nic.mac1609_4 ReceivedUnicastPackets 0
scalar RSUExampleScenario.node[75].nic.mac1609_4 ReceivedBroadcasts 0
scalar RSUExampleScenario.node[75].nic.mac1609_4 SentPackets 0
scalar RSUExampleScenario.node[75].nic.mac1609_4 SentAcknowledgements 0
scalar RSUExampleScenario.node[75].nic.mac1609_4 RetriesExceeded 0
scalar RSUExampleScenario.node[75].nic.mac1609_4 SNIRLostPackets 0
scalar RSUExampleScenario.node[75].nic.mac1609_4 RXTXLostPackets 0
scalar RSUExampleScenario.node[75].nic.mac1609_4 TotalLostPackets 0
scalar RSUExampleScenario.node[75].nic.mac1609_4 DroppedPacketsInMac 0
scalar RSUExampleScenario.node[75].nic.mac1609_4 TooLittleTime 0
scalar RSUExampleScenario.node[75].nic.mac1609_4 TimesIntoBackoff 0
scalar RSUExampleScenario.node[75].nic.mac1609_4 SlotsBackoff 0
scalar RSUExampleScenario.node[75].nic.mac1609_4 NumInternalContention 0
scalar RSUExampleScenario.node[75].nic.mac1609_4 totalBusyTime 0
scalar RSUExampleScenario.node[75].nic.mac1609_4 retriesExceeded:count 0
attr source org_car2x_veins_modules_mac_sigRetriesExceeded
scalar RSUExampleScenario.node[75].nic.mac1609_4 sentAcks:count 0
attr source org_car2x_veins_modules_mac_sigSentAck
scalar RSUExampleScenario.node[75].nic.mac1609_4 sentPackets:count 0
attr source org_car2x_veins_modules_mac_sigSentPacket
scalar RSUExampleScenario.node[75].nic.mac1609_4 collisions:count 0
attr source org_car2x_veins_modules_mac_sigCollision
scalar RSUExampleScenario.node[75].nic.mac1609_4 channelBusy:timeavg 0
attr source org_car2x_veins_modules_mac_sigChannelBusy
scalar RSUExampleScenario.node[75].veinsmobility startTime 78
scalar RSUExampleScenario.node[75].veinsmobility totalTime 4
scalar RSUExampleScenario.node[75].veinsmobility stopTime 82.000067216073
scalar RSUExampleScenario.node[75].veinsmobility minSpeed 1.5024418528192
scalar RSUExampleScenario.node[75].veinsmobility maxSpeed 7.678184179659
scalar RSUExampleScenario.node[75].veinsmobility totalDistance 17.781765772971
scalar RSUExampleScenario.node[75].veinsmobility totalCO2Emission 12.559947582635
scalar RSUExampleScenario.node[76].appl generatedWSMs 0
scalar RSUExampleScenario.node[76].appl receivedWSMs 0
scalar RSUExampleScenario.node[76].appl generatedBSMs 0
scalar RSUExampleScenario.node[76].appl receivedBSMs 0
scalar RSUExampleScenario.node[76].appl generatedWSAs 0
scalar RSUExampleScenario.node[76].appl receivedWSAs 0
scalar RSUExampleScenario.node[76].nic.phy80211p busyTime 0
scalar RSUExampleScenario.node[76].nic.mac1609_4 ReceivedUnicastPackets 0
scalar RSUExampleScenario.node[76].nic.mac1609_4 ReceivedBroadcasts 0
scalar RSUExampleScenario.node[76].nic.mac1609_4 SentPackets 0
scalar RSUExampleScenario.node[76].nic.mac1609_4 SentAcknowledgements 0
scalar RSUExampleScenario.node[76].nic.mac1609_4 RetriesExceeded 0
scalar RSUExampleScenario.node[76].nic.mac1609_4 SNIRLostPackets 0
scalar RSUExampleScenario.node[76].nic.mac1609_4 RXTXLostPackets 0
scalar RSUExampleScenario.node[76].nic.mac1609_4 TotalLostPackets 0
scalar RSUExampleScenario.node[76].nic.mac1609_4 DroppedPacketsInMac 0
scalar RSUExampleScenario.node[76].nic.mac1609_4 TooLittleTime 0
scalar RSUExampleScenario.node[76].nic.mac1609_4 TimesIntoBackoff 0
scalar RSUExampleScenario.node[76].nic.mac1609_4 SlotsBackoff 0
scalar RSUExampleScenario.node[76].nic.mac1609_4 NumInternalContention 0
scalar RSUExampleScenario.node[76].nic.mac1609_4 totalBusyTime 0
scalar RSUExampleScenario.node[76].nic.mac1609_4 retriesExceeded:count 0
attr source org_car2x_veins_modules_mac_sigRetriesExceeded
scalar RSUExampleScenario.node[76].nic.mac1609_4 sentAcks:count 0
attr source org_car2x_veins_modules_mac_sigSentAck
scalar RSUExampleScenario.node[76].nic.mac1609_4 sentPackets:count 0
attr source org_car2x_veins_modules_mac_sigSentPacket
scalar RSUExampleScenario.node[76].nic.mac1609_4 collisions:count 0
attr source org_car2x_veins_modules_mac_sigCollision
scalar RSUExampleScenario.node[76].nic.mac1609_4 channelBusy:timeavg 0
attr source org_car2x_veins_modules_mac_sigChannelBusy
scalar RSUExampleScenario.node[76].veinsmobility startTime 78
scalar RSUExampleScenario.node[76].veinsmobility totalTime 4
scalar RSUExampleScenario.node[76].veinsmobility stopTime 82.000067216073
scalar RSUExampleScenario.node[76].veinsmobility minSpeed 2.1809670126531
scalar RSUExampleScenario.node[76].veinsmobility maxSpeed 6.901762652467
scalar RSUExampleScenario.node[76].veinsmobility totalDistance 18.446923328646
scalar RSUExampleScenario.node[76].veinsmobility totalCO2Emission 10.242501186547
scalar RSUExampleScenario.node[77].appl generatedWSMs 0
scalar RSUExampleScenario.node[77].appl receivedWSMs 0
scalar RSUExampleScenario.node[77].appl generatedBSMs 0
scalar RSUExampleScenario.node[77].appl receivedBSMs 0
scalar RSUExampleScenario.node[77].appl generatedWSAs 0
scalar RSUExampleScenario.node[77].appl receivedWSAs 0
scalar RSUExampleScenario.node[77].nic.phy80211p busyTime 0
scalar RSUExampleScenario.node[77].nic.mac1609_4 ReceivedUnicastPackets 0
scalar RSUExampleScenario.node[77].nic.mac1609_4 ReceivedBroadcasts 0
scalar RSUExampleScenario.node[77].nic.mac1609_4 SentPackets 0
scalar RSUExampleScenario.node[77].nic.mac1609_4 SentAcknowledgements 0
scalar RSUExampleScenario.node[77].nic.mac1609_4 RetriesExceeded 0
scalar RSUExampleScenario.node[77].nic.mac1609_4 SNIRLostPackets 0
scalar RSUExampleScenario.node[77].nic.mac1609_4 RXTXLostPackets 0
scalar RSUExampleScenario.node[77].nic.mac1609_4 TotalLostPackets 0
scalar RSUExampleScenario.node[77].nic.mac1609_4 DroppedPacketsInMac 0
scalar RSUExampleScenario.node[77].nic.mac1609_4 TooLittleTime 0
scalar RSUExampleScenario.node[77].nic.mac1609_4 TimesIntoBackoff 0
scalar RSUExampleScenario.node[77].nic.mac1609_4 SlotsBackoff 0
scalar RSUExampleScenario.node[77].nic.mac1609_4 NumInternalContention 0
scalar RSUExampleScenario.node[77].nic.mac1609_4 totalBusyTime 0
scalar RSUExampleScenario.node[77].nic.mac1609_4 retriesExceeded:count 0
attr source org_car2x_veins_modules_mac_sigRetriesExceeded
scalar RSUExampleScenario.node[77].nic.mac1609_4 sentAcks:count 0
attr source org_car2x_veins_modules_mac_sigSentAck
scalar RSUExampleScenario.node[77].nic.mac1609_4 sentPackets:count 0
attr source org_car2x_veins_modules_mac_sigSentPacket
scalar RSUExampleScenario.node[77].nic.mac1609_4 collisions:count 0
attr source org_car2x_veins_modules_mac_sigCollision
scalar RSUExampleScenario.node[77].nic.mac1609_4 channelBusy:timeavg 0
attr source org_car2x_veins_modules_mac_sigChannelBusy
scalar RSUExampleScenario.node[77].veinsmobility startTime 79
scalar RSUExampleScenario.node[77].veinsmobility totalTime 3
scalar RSUExampleScenario.node[77].veinsmobility stopTime 82.000067216073
scalar RSUExampleScenario.node[77].veinsmobility minSpeed 2.2062034231843
scalar RSUExampleScenario.node[77].veinsmobility maxSpeed 7.0411323209293
scalar RSUExampleScenario.node[77].veinsmobility totalDistance 13.954911525816
scalar RSUExampleScenario.node[77].veinsmobility totalCO2Emission 9.6263343462746
scalar RSUExampleScenario.node[78].appl generatedWSMs 0
scalar RSUExampleScenario.node[78].appl receivedWSMs 0
scalar RSUExampleScenario.node[78].appl generatedBSMs 0
scalar RSUExampleScenario.node[78].appl receivedBSMs 0
scalar RSUExampleScenario.node[78].appl generatedWSAs 0
scalar RSUExampleScenario.node[78].appl receivedWSAs 0
scalar RSUExampleScenario.node[78].nic.phy80211p busyTime 0
scalar RSUExampleScenario.node[78].nic.mac1609_4 ReceivedUnicastPackets 0
scalar RSUExampleScenario.node[78].nic.mac1609_4 ReceivedBroadcasts 0
scalar RSUExampleScenario.node[78].nic.mac1609_4 SentPackets 0
scalar RSUExampleScenario.node[78].nic.mac1609_4 SentAcknowledgements 0
scalar RSUExampleScenario.node[78].nic.mac1609_4 RetriesExceeded 0
scalar RSUExampleScenario.node[78].nic.mac1609_4 SNIRLostPackets 0
scalar RSUExampleScenario.node[78].nic.mac1609_4 RXTXLostPackets 0
scalar RSUExampleScenario.node[78].nic.mac1609_4 TotalLostPackets 0
scalar RSUExampleScenario.node[78].nic.mac1609_4 DroppedPacketsInMac 0
scalar RSUExampleScenario.node[78].nic.mac1609_4 TooLittleTime 0
scalar RSUExampleScenario.node[78].nic.mac1609_4 TimesIntoBackoff 0
scalar RSUExampleScenario.node[78].nic.mac1609_4 SlotsBackoff 0
scalar RSUExampleScenario.node[78].nic.mac1609_4 NumInternalContention 0
scalar RSUExampleScenario.node[78].nic.mac1609_4 totalBusyTime 0
scalar RSUExampleScenario.node[78].nic.mac1609_4 retriesExceeded:count 0
attr source org_car2x_veins_modules_mac_sigRetriesExceeded
scalar RSUExampleScenario.node[78].nic.mac1609_4 sentAcks:count 0
attr source org_car2x_veins_modules_mac_sigSentAck
scalar RSUExampleScenario.node[78].nic.mac1609_4 sentPackets:count 0
attr source org_car2x_veins_modules_mac_sigSentPacket
scalar RSUExampleScenario.node[78].nic.mac1609_4 collisions:count 0
attr source org_car2x_veins_modules_mac_sigCollision
scalar RSUExampleScenario.node[78].nic.mac1609_4 channelBusy:timeavg 0
attr source org_car2x_veins_modules_mac_sigChannelBusy
scalar RSUExampleScenario.node[78].veinsmobility startTime 80
scalar RSUExampleScenario.node[78].veinsmobility totalTime 2
scalar RSUExampleScenario.node[78].veinsmobility stopTime 82.000067216073
scalar RSUExampleScenario.node[78].veinsmobility minSpeed 2.0525752724847
scalar RSUExampleScenario.node[78].veinsmobility maxSpeed 4.0743074717233
scalar RSUExampleScenario.node[78].veinsmobility totalDistance 6.1269606748122
scalar RSUExampleScenario.node[78].veinsmobility totalCO2Emission 3.2979477166271
scalar RSUExampleScenario.node[79].appl generatedWSMs 0
scalar RSUExampleScenario.node[79].appl receivedWSMs 0
scalar RSUExampleScenario.node[79].appl generatedBSMs 0
scalar RSUExampleScenario.node[79].appl receivedBSMs 0
scalar RSUExampleScenario.node[79].appl generatedWSAs 0
scalar RSUExampleScenario.node[79].appl receivedWSAs 0
scalar RSUExampleScenario.node[79].nic.phy80211p busyTime 0
scalar RSUExampleScenario.node[79].nic.mac1609_4 ReceivedUnicastPackets 0
scalar RSUExampleScenario.node[79].nic.mac1609_4 ReceivedBroadcasts 0
scalar RSUExampleScenario.node[79].nic.mac1609_4 SentPackets 0
scalar RSUExampleScenario.node[79].nic.mac1609_4 SentAcknowledgements 0
scalar RSUExampleScenario.node[79].nic.mac1609_4 RetriesExceeded 0
scalar RSUExampleScenario.node[79].nic.mac1609_4 SNIRLostPackets 0
scalar RSUExampleScenario.node[79].nic.mac1609_4 RXTXLostPackets 0
scalar RSUExampleScenario.node[79].nic.mac1609_4 TotalLostPackets 0
scalar RSUExampleScenario.node[79].nic.mac1609_4 DroppedPacketsInMac 0
scalar RSUExampleScenario.node[79].nic.mac1609_4 TooLittleTime 0
scalar RSUExampleScenario.node[79].nic.mac1609_4 TimesIntoBackoff 0
scalar RSUExampleScenario.node[79].nic.mac1609_4 SlotsBackoff 0
scalar RSUExampleScenario.node[79].nic.mac1609_4 NumInternalContention 0
scalar RSUExampleScenario.node[79].nic.mac1609_4 totalBusyTime 0
scalar RSUExampleScenario.node[79].nic.mac1609_4 retriesExceeded:count 0
attr source org_car2x_veins_modules_mac_sigRetriesExceeded
scalar RSUExampleScenario.node[79].nic.mac1609_4 sentAcks:count 0
attr source org_car2x_veins_modules_mac_sigSentAck
scalar RSUExampleScenario.node[79].nic.mac1609_4 sentPackets:count 0
attr source org_car2x_veins_modules_mac_sigSentPacket
scalar RSUExampleScenario.node[79].nic.mac1609_4 collisions:count 0
attr source org_car2x_veins_modules_mac_sigCollision
scalar RSUExampleScenario.node[79].nic.mac1609_4 channelBusy:timeavg 0
attr source org_car2x_veins_modules_mac_sigChannelBusy
scalar RSUExampleScenario.node[79].veinsmobility startTime 81
scalar RSUExampleScenario.node[79].veinsmobility totalTime 1
scalar RSUExampleScenario.node[79].veinsmobility stopTime 82.000067216073
scalar RSUExampleScenario.node[79].veinsmobility minSpeed 1.8032575017074
scalar RSUExampleScenario.node[79].veinsmobility maxSpeed 1.8032575017074
scalar RSUExampleScenario.node[79].veinsmobility totalDistance 1.803199855035
scalar RSUExampleScenario.node[79].veinsmobility totalCO2Emission 0

