version 2
run WithBeaconing-0-20241117-17:52:08-6668
attr configname WithBeaconing
attr datetime 20241117-17:52:08
attr experiment WithBeaconing
attr inifile omnetpp.ini
attr iterationvars ""
attr iterationvarsf ""
attr measurement ""
attr network RSUExampleScenario
attr processid 6668
attr repetition 0
attr replication #0
attr resultdir results
attr runnumber 0
attr seedset 0
param *.rsu[*].appl.sendBeacons true
param *.node[*].appl.sendBeacons false
param *.playgroundSizeX 2500m
param *.playgroundSizeY 1500m
param *.playgroundSizeZ 100m
param *.annotations.draw true
param *.manager.updateInterval 1s
param *.manager.host "\"localhost\""
param *.manager.port 9999
param *.manager.autoShutdown true
param *.manager.launchConfig "xmldoc(\"osm.launchd.xml\")"
param *.rsu[0].mobility.x 400
param *.rsu[0].mobility.y 250
param *.rsu[0].mobility.z 4
param *.rsu[*].applType "\"TraCIDemoRSU11p\""
param *.rsu[*].appl.headerLength "80 bit"
param *.rsu[*].appl.sendBeacons true
param *.rsu[*].appl.dataOnSch false
param *.rsu[*].appl.beaconInterval 1s
param *.rsu[*].appl.beaconUserPriority 7
param *.rsu[*].appl.dataUserPriority 5
param *.rsu[*].nic.phy80211p.antennaOffsetZ "0 m"
param *.connectionManager.sendDirect true
param *.connectionManager.maxInterfDist 150m
param *.connectionManager.drawMaxIntfDist false
param *.**.nic.mac1609_4.useServiceChannel false
param *.**.nic.mac1609_4.txPower 1mW
param *.**.nic.mac1609_4.bitrate 6Mbps
param *.**.nic.phy80211p.minPowerLevel -90dBm
param *.**.nic.phy80211p.useNoiseFloor true
param *.**.nic.phy80211p.noiseFloor -98dBm
param *.**.nic.phy80211p.decider "xmldoc(\"config.xml\")"
param *.**.nic.phy80211p.analogueModels "xmldoc(\"config.xml\")"
param *.**.nic.phy80211p.usePropagationDelay true
param *.**.nic.phy80211p.antenna "xmldoc(\"antenna.xml\", \"/root/Antenna[@id='monopole']\")"
param *.node[*].nic.phy80211p.antennaOffsetY "0 m"
param *.node[*].nic.phy80211p.antennaOffsetZ "1.895 m"
param *.node[*].applType "\"TraCIDemo11p\""
param *.node[*].appl.headerLength "80 bit"
param *.node[*].appl.sendBeacons false
param *.node[*].appl.dataOnSch false
param *.node[*].appl.beaconInterval 1s
param *.node[*].veinsmobility.x 0
param *.node[*].veinsmobility.y 0
param *.node[*].veinsmobility.z 0
param *.node[*].veinsmobility.setHostSpeed true
param *.node[*0].veinsmobility.accidentCount 1
param *.node[*0].veinsmobility.accidentStart 73s
param *.node[*0].veinsmobility.accidentDuration 50s

vector 0 RSUExampleScenario.node[0].veinsmobility posx ETV
vector 1 RSUExampleScenario.node[0].veinsmobility posy ETV
vector 2 RSUExampleScenario.node[0].veinsmobility speed ETV
vector 3 RSUExampleScenario.node[0].veinsmobility acceleration ETV
vector 4 RSUExampleScenario.node[0].veinsmobility co2emission ETV
vector 5 RSUExampleScenario.node[1].veinsmobility posx ETV
vector 6 RSUExampleScenario.node[1].veinsmobility posy ETV
vector 7 RSUExampleScenario.node[1].veinsmobility speed ETV
vector 8 RSUExampleScenario.node[1].veinsmobility acceleration ETV
vector 9 RSUExampleScenario.node[1].veinsmobility co2emission ETV
vector 10 RSUExampleScenario.node[2].veinsmobility posx ETV
vector 11 RSUExampleScenario.node[2].veinsmobility posy ETV
vector 12 RSUExampleScenario.node[2].veinsmobility speed ETV
vector 13 RSUExampleScenario.node[2].veinsmobility acceleration ETV
vector 14 RSUExampleScenario.node[2].veinsmobility co2emission ETV
vector 15 RSUExampleScenario.node[3].veinsmobility posx ETV
vector 16 RSUExampleScenario.node[3].veinsmobility posy ETV
vector 17 RSUExampleScenario.node[3].veinsmobility speed ETV
vector 18 RSUExampleScenario.node[3].veinsmobility acceleration ETV
vector 19 RSUExampleScenario.node[3].veinsmobility co2emission ETV
vector 20 RSUExampleScenario.node[4].veinsmobility posx ETV
vector 21 RSUExampleScenario.node[4].veinsmobility posy ETV
vector 22 RSUExampleScenario.node[4].veinsmobility speed ETV
vector 23 RSUExampleScenario.node[4].veinsmobility acceleration ETV
vector 24 RSUExampleScenario.node[4].veinsmobility co2emission ETV
vector 25 RSUExampleScenario.node[5].veinsmobility posx ETV
vector 26 RSUExampleScenario.node[5].veinsmobility posy ETV
vector 27 RSUExampleScenario.node[5].veinsmobility speed ETV
vector 28 RSUExampleScenario.node[5].veinsmobility acceleration ETV
vector 29 RSUExampleScenario.node[5].veinsmobility co2emission ETV
vector 30 RSUExampleScenario.node[6].veinsmobility posx ETV
vector 31 RSUExampleScenario.node[6].veinsmobility posy ETV
vector 32 RSUExampleScenario.node[6].veinsmobility speed ETV
vector 33 RSUExampleScenario.node[6].veinsmobility acceleration ETV
vector 34 RSUExampleScenario.node[6].veinsmobility co2emission ETV
vector 35 RSUExampleScenario.node[7].veinsmobility posx ETV
vector 36 RSUExampleScenario.node[7].veinsmobility posy ETV
vector 37 RSUExampleScenario.node[7].veinsmobility speed ETV
vector 38 RSUExampleScenario.node[7].veinsmobility acceleration ETV
vector 39 RSUExampleScenario.node[7].veinsmobility co2emission ETV
vector 40 RSUExampleScenario.node[8].veinsmobility posx ETV
vector 41 RSUExampleScenario.node[8].veinsmobility posy ETV
vector 42 RSUExampleScenario.node[8].veinsmobility speed ETV
vector 43 RSUExampleScenario.node[8].veinsmobility acceleration ETV
vector 44 RSUExampleScenario.node[8].veinsmobility co2emission ETV
vector 45 RSUExampleScenario.node[9].veinsmobility posx ETV
vector 46 RSUExampleScenario.node[9].veinsmobility posy ETV
vector 47 RSUExampleScenario.node[9].veinsmobility speed ETV
vector 48 RSUExampleScenario.node[9].veinsmobility acceleration ETV
vector 49 RSUExampleScenario.node[9].veinsmobility co2emission ETV
19	427	42	0.973
19	439	43	1.3538306186218
19	451	44	3.5431572414124
19	463	45	1.6663003302709
19	475	46	1.7172738144048
19	487	47	1.4454347304129
19	499	48	2.005334549651
19	511	49	1.2246370700728
19	523	50	0.973
19	533	51	1.5440843614044
19	543	52	4.526850302579
19	553	53	0.973
19	563	54	3.9652222308965
19	573	55	0.973
19	583	56	1.4891031707058
19	593	57	3.8374552183057
19	603	58	0.973
19	613	59	1.2604180787681
19	623	60	3.4179669437618
19	633	61	1.2577916281772
19	643	62	2.6309540487968
19	653	63	0.973
19	663	64	4.5764466436962
19	673	65	0.973
19	683	66	0.973
19	693	67	3.224347762191
19	703	68	0.973
19	713	69	1.9767211615285
19	723	70	2.7562543522833
19	733	71	2.9158763079265
19	743	72	0.973
19	753	73	2.5681472681826
19	764	74	0.973
19	774	75	2.6545968395726
19	784	76	2.2786864802189
19	794	77	2.1014693234116
19	804	78	0.973
19	814	79	0.973
19	824	80	2.3396933401289
19	834	81	0.973
19	844	82	2.4706924539988
19	854	83	0.973
19	864	84	3.6566438624308
19	874	85	1.8077887727762
19	892	86	0.973
19	902	87	1.4338653237434
19	912	88	3.0493482094372
19	924	89	2.1058251886512
19	936	90	1.7977261717268
19	948	91	0.973
19	960	92	0.973
19	972	93	0.973
19	984	94	3.6425255570933
19	996	95	3.4230817162244
19	1008	96	7.2073477991457
19	1020	97	5.9105551111326
19	1032	98	1.2727850829896
19	1042	99	0.973
19	1052	100	0.973
19	1062	101	0.973
19	1072	102	4.0189481088386
19	1082	103	5.0265369149563
19	1092	104	6.8825236459761
19	1102	105	3.3553178603835
19	1112	106	0.973
19	1122	107	3.857941559225
19	1132	108	1.2405903620296
19	1142	109	0.973
19	1152	110	0.973
19	1162	111	3.1883677120141
19	1172	112	3.9464945912426
19	1182	113	4.6562291427198
19	1192	114	6.3908684171553
19	1202	115	3.1888137767855
19	1214	116	0.973
19	1226	117	0.973
19	1238	118	0.973
19	1250	119	0.973
19	1262	120	6.1253417044403
19	1274	121	6.6932564657165
19	1286	122	3.0231003054182
19	1298	123	1.6177945890045
19	1311	124	2.7843492046154
19	1323	125	0.973
19	1335	126	0.973
19	1351	127	0.973
19	1367	128	0.973
19	1383	129	3.8210153539864
19	1399	130	4.4049334185434
19	1411	131	5.2589135376646
19	1423	132	6.172983678454
19	1435	133	0.973
19	1447	134	3.4986426689129
19	1459	135	0.973
19	1471	136	1.5778835110437
18	427	42	-0.49634874938056
18	439	43	-0.14586682736408
18	451	44	0.65799731886946
18	463	45	-0.039619067776949
18	475	46	-0.019996290677227
18	487	47	-0.11936196009628
18	499	48	0.088994176522828
18	511	49	-0.20150843723677
18	523	50	-0.62906653960235
18	533	51	-0.062531436234714
18	543	52	1.0197149918647
18	553	53	-0.76875352701172
18	563	54	0.80734855867922
18	573	55	-0.64494215485174
18	583	56	-0.092260914039798
18	593	57	0.75805382414255
18	603	58	-0.73555918140337
18	613	59	-0.18059563988354
18	623	60	0.62807921643835
18	633	61	-0.18764145411551
18	643	62	0.32185696833767
18	653	63	-0.85108319688588
18	663	64	1.0279893169645
18	673	65	-0.31607552224304
18	683	66	-0.2778021042468
18	693	67	0.53459915493149
18	703	68	-1.1672135810601
18	713	69	0.11452075592242
18	723	70	0.404131139745
18	733	71	0.43517440482974
18	743	72	-0.55730049228296
18	753	73	0.31815189865883
18	764	74	-0.22865411888342
18	774	75	0.34421498412267
18	784	76	0.19137903554365
18	794	77	0.11988487190101
18	804	78	-0.44096788608003
18	814	79	-0.55556270261295
18	824	80	0.24728472358547
18	834	81	-0.2547135152854
18	844	82	0.29687777149957
18	854	83	-0.45616149615962
18	864	84	0.73800356262364
18	874	85	0.023911066632717
18	892	86	-0.63490572459996
18	902	87	-0.10493885362521
18	912	88	0.51925031943247
18	924	89	0.14209837743547
18	936	90	0.021901254961266
18	948	91	-0.31305744196288
18	960	92	-2.935588032973
18	972	93	-2.92835180575
18	984	94	1.5186360970139
18	996	95	1.1166784818701
18	1008	96	2.4041965243872
18	1020	97	1.5424825725723
18	1032	98	-0.18434374367353
18	1042	99	-0.47024997947737
18	1052	100	-0.97750391001222
18	1062	101	-4.5
18	1072	102	1.6103685823036
18	1082	103	1.724187891325
18	1092	104	2.0630994800711
18	1102	105	0.60094241651581
18	1112	106	-0.99304656700697
18	1122	107	0.80976078410167
18	1132	108	-0.19235229650512
18	1142	109	-2.1579830236251
18	1152	110	-4.0806452443125
18	1162	111	1.3046075610677
18	1172	112	1.4338872503722
18	1182	113	1.4823798019206
18	1192	114	1.8539191005519
18	1202	115	0.53820114233364
18	1214	116	-0.28712881959509
18	1226	117	-0.3176009199582
18	1238	118	-0.77283973939012
18	1250	119	-4.3584904307965
18	1262	120	2.4702338451752
18	1274	121	2.1163175751688
18	1286	122	0.5243155888351
18	1298	123	-0.037106764595954
18	1311	124	0.40295919580385
18	1323	125	-0.28202345431782
18	1335	126	-0.28821370191872
18	1351	127	-1.9052197900661
18	1367	128	-3.2014433673932
18	1383	129	1.4992783194408
18	1399	130	1.4771120201563
18	1411	131	1.5593118736753
18	1423	132	1.6245552013339
18	1435	133	-0.97571109118871
18	1447	134	0.66321087281685
18	1459	135	-0.50795226907358
18	1471	136	-0.05346142789349
17	415	41	11.13044027405
17	427	42	10.63409152467
17	439	43	10.488224697306
17	451	44	11.146222016175
17	463	45	11.106602948398
17	475	46	11.086606657721
17	487	47	10.967244697625
17	499	48	11.056238874148
17	511	49	10.854730436911
17	523	50	10.225663897308
17	533	51	10.163132461074
17	543	52	11.182847452938
17	553	53	10.414093925927
17	563	54	11.221442484606
17	573	55	10.576500329754
17	583	56	10.484239415714
17	593	57	11.242293239857
17	603	58	10.506734058454
17	613	59	10.32613841857
17	623	60	10.954217635008
17	633	61	10.766576180893
17	643	62	11.088433149231
17	653	63	10.237349952345
17	663	64	11.265339269309
17	673	65	10.949263747066
17	683	66	10.671461642819
17	693	67	11.206060797751
17	703	68	10.038847216691
17	713	69	10.153367972613
17	723	70	10.557499112358
17	733	71	10.992673517188
17	743	72	10.435373024905
17	753	73	10.753524923564
17	764	74	10.52487080468
17	774	75	10.869085788803
17	784	76	11.060464824347
17	794	77	11.180349696248
17	804	78	10.739381810168
17	814	79	10.183819107555
17	824	80	10.43110383114
17	834	81	10.176390315855
17	844	82	10.473268087354
17	854	83	10.017106591195
17	864	84	10.755110153818
17	874	85	10.779021220451
17	892	86	10.144115495851
17	902	87	10.039176642226
17	912	88	10.558426961658
17	924	89	10.700525339094
17	936	90	10.722426594055
17	948	91	10.409369152092
17	960	92	7.4737811191192
17	972	93	4.5454293133692
17	984	94	6.0640654103832
17	996	95	7.1807438922532
17	1008	96	9.5849404166404
17	1020	97	11.127422989213
17	1032	98	10.943079245539
17	1042	99	10.472829266062
17	1052	100	9.4953253560497
17	1062	101	4.9953253560497
17	1072	102	6.6056939383533
17	1082	103	8.3298818296783
17	1092	104	10.392981309749
17	1102	105	10.993923726265
17	1112	106	10.000877159258
17	1122	107	10.81063794336
17	1132	108	10.618285646855
17	1142	109	8.4603026232297
17	1152	110	4.3796573789173
17	1162	111	5.6842649399849
17	1172	112	7.1181521903571
17	1182	113	8.6005319922778
17	1192	114	10.45445109283
17	1202	115	10.992652235163
17	1214	116	10.705523415568
17	1226	117	10.38792249561
17	1238	118	9.6150827562198
17	1250	119	5.2565923254233
17	1262	120	7.7268261705986
17	1274	121	9.8431437457674
17	1286	122	10.367459334602
17	1298	123	10.330352570007
17	1311	124	10.73331176581
17	1323	125	10.451288311493
17	1335	126	10.163074609574
17	1351	127	8.2578548195077
17	1367	128	5.0564114521145
17	1383	129	6.5556897715553
17	1399	130	8.0328017917116
17	1411	131	9.5921136653869
17	1423	132	11.216668866721
17	1435	133	10.240957775532
17	1447	134	10.904168648349
17	1459	135	10.396216379275
17	1471	136	10.342754951382
16	403	40	836.7059994293
16	415	41	826.02514039924
16	427	42	815.82058157755
16	439	43	805.75599772378
16	451	44	795.05999440843
16	463	45	784.40200986569
16	475	46	773.76321392255
16	487	47	763.23895866585
16	499	48	752.62930388941
16	511	49	742.21301821235
16	523	50	732.40038979093
16	533	51	722.64776703317
16	543	52	711.91661765735
16	553	53	701.9231702815
16	563	54	691.15498480626
16	573	55	681.00569095336
16	583	56	670.94493140751
16	593	57	660.15673738166
16	603	58	650.07439179769
16	613	59	640.17621361377
16	623	60	629.67876477317
16	633	61	619.36113311629
16	643	62	608.73506527787
16	653	63	598.92459218259
16	663	64	588.1289948527
16	673	65	577.63629333291
16	683	66	567.40981012959
16	693	67	556.67101947848
16	703	68	547.0323550559
16	713	69	537.24804744691
16	723	70	527.07429828548
16	733	71	516.4811926847
16	743	72	506.4251305026
16	753	73	496.06248078706
16	764	74	485.92017394113
16	774	75	475.44616383206
16	784	76	464.78773104091
16	794	77	454.01377102101
16	804	78	443.64811246535
16	814	79	433.8053310479
16	824	80	423.72354602517
16	834	81	413.88794462262
16	844	82	403.76540734839
16	854	83	394.08375554653
16	864	84	383.68881458709
16	874	85	373.2707632994
16	892	86	363.46635589148
16	902	87	353.7633731247
16	912	88	343.5585287929
16	924	89	333.21634470143
16	936	90	322.85299278842
16	948	91	312.79221458964
16	960	92	305.51897853287
16	972	93	301.10103202588
16	984	94	297.92213321158
16	996	95	297.98426788724
16	1008	96	298.67554916567
16	1020	97	299.47807676159
16	1032	98	300.26730919101
16	1042	99	301.02262643756
16	1052	100	301.70744453407
16	1062	101	302.06771541194
16	1072	102	302.74276563062
16	1082	103	303.65419169289
16	1092	104	305.0417806986
16	1102	105	306.55166156049
16	1112	106	307.92515963096
16	1122	107	309.40986843393
16	1132	108	310.8681600033
16	1142	109	312.03007901735
16	1152	110	312.63157135282
16	1162	111	313.40510812361
16	1172	112	314.36882577941
16	1182	113	315.52610514464
16	1192	114	316.92477695804
16	1202	115	318.39545319913
16	1214	116	319.82771527737
16	1226	117	321.21748641556
16	1238	118	322.50386148348
16	1250	119	323.20712628953
16	1262	120	324.23252976623
16	1274	121	325.53660670965
16	1286	122	326.90985110173
16	1298	123	328.27818043653
16	1311	124	329.6998846087
16	1323	125	331.08423275038
16	1335	126	332.43040491883
16	1351	127	333.52421705308
16	1367	128	334.1939750378
16	1383	129	335.13707015929
16	1399	130	336.31117677038
16	1411	131	337.78570454083
16	1423	132	339.52737154911
16	1435	133	341.11753512644
16	1447	134	342.81067869814
16	1459	135	344.42495003786
16	1471	136	346.03092016033
15	403	40	565.71467961936
15	415	41	568.84578075968
15	427	42	571.83725416768
15	439	43	574.78769381796
15	451	44	577.92323451589
15	463	45	581.04762998458
15	475	46	584.16640030216
15	487	47	587.25159293905
15	499	48	590.36182050365
15	511	49	593.41536178433
15	523	50	596.29194052704
15	533	51	599.15092856836
15	543	52	602.29677235798
15	553	53	605.22635830104
15	563	54	608.38305924857
15	573	55	611.35833169312
15	583	56	614.30765024492
15	593	57	617.47021671277
15	603	58	620.42586322643
15	613	59	623.3674602354
15	623	60	626.4973744296
15	633	61	629.57367442054
15	643	62	632.741937592
15	653	63	635.66702343513
15	663	64	638.88583343656
15	673	65	642.01433217191
15	683	66	645.06345538467
15	693	67	648.26532793464
15	703	68	651.06967165941
15	713	69	653.78194213037
15	723	70	656.60216820381
15	733	71	659.53864247106
15	743	72	662.32624498731
15	753	73	665.19883546049
15	764	74	668.01034552997
15	774	75	670.91380579171
15	784	76	673.86838915942
15	794	77	676.85499738812
15	804	78	679.66249095711
15	814	79	682.27553900687
15	824	80	684.95203740446
15	834	81	687.56317931375
15	844	82	690.25049656293
15	854	83	692.82076814434
15	864	84	695.58040274856
15	874	85	698.34617265088
15	892	86	700.94903322146
15	902	87	703.52496771804
15	912	88	706.23413573146
15	924	89	708.97976451506
15	936	90	711.73101290276
15	948	91	714.40193443767
15	960	92	716.07419857288
15	972	93	715.76395552843
15	984	94	711.14167994906
15	996	95	703.97868984645
15	1008	96	694.41854875818
15	1020	97	683.31991599663
15	1032	98	672.4051500221
15	1042	99	661.95941733887
15	1052	100	652.48865944817
15	1062	101	647.50625860792
15	1072	102	640.93566254365
15	1082	103	632.65549486282
15	1092	104	622.35628931329
15	1102	105	611.46689580054
15	1112	106	601.56110696924
15	1122	107	590.85325655839
15	1132	108	580.33592955865
15	1142	109	571.95606748254
15	1152	110	567.6180518807
15	1162	111	561.98492616423
15	1172	112	554.92879540716
15	1182	113	546.40458923039
15	1192	114	536.04448641373
15	1202	115	525.15103955814
15	1214	116	514.54213027093
15	1226	117	504.24795565091
15	1238	118	494.71964612413
15	1250	119	489.51049296314
15	1262	120	481.85102099539
15	1274	121	472.09332861183
15	1286	122	461.81772508941
15	1298	123	451.57889956521
15	1311	124	440.94068506844
15	1323	125	430.58199529485
15	1335	126	420.50896564638
15	1351	127	412.32427551813
15	1367	128	407.31266393121
15	1383	129	400.82444815253
15	1399	130	392.87664955438
15	1411	131	383.39879063401
15	1423	132	372.31878846076
15	1435	133	362.2026090712
15	1447	134	351.43129953566
15	1459	135	341.16175325194
15	1471	136	330.94501700873
9	161	16	0.973
9	171	17	3.9464647693789
9	181	18	1.6007053238051
9	191	19	0.973
9	201	20	2.0225587939251
9	211	21	3.261700555886
9	221	22	2.3124994925713
9	231	23	0.973
9	241	24	1.290919599959
9	251	25	2.7796534944845
9	261	26	2.4134563573761
9	271	27	0.973
9	281	28	3.069383118891
9	291	29	0.973
9	301	30	0.973
9	311	31	2.1851571094937
9	321	32	4.2408413053237
9	331	33	0.973
9	341	34	2.4048461713661
9	351	35	0.973
9	361	36	3.3308811512055
9	371	37	1.4911101938823
9	381	38	0.973
9	391	39	1.8270331609201
9	403	40	3.1786697515982
9	415	41	0.973
9	427	42	3.2963890208663
9	439	43	2.7389069182925
9	451	44	0.973
9	463	45	0.973
9	475	46	3.5255214036049
9	487	47	1.6017421274937
9	499	48	0.973
9	511	49	4.8023155528994
9	523	50	0.973
9	533	51	1.821314885649
9	543	52	1.8024682587718
9	553	53	3.9761583043761
9	563	54	0.973
9	573	55	2.6923074646476
9	583	56	0.973
9	593	57	2.4782416359954
9	603	58	1.3302808905154
9	613	59	1.4209406182345
9	623	60	1.7092579687384
9	633	61	0.973
9	643	62	4.4551433151749
9	653	63	0.973
9	663	64	2.6229823153757
9	673	65	2.0059978233541
9	683	66	1.3838963609595
9	693	67	1.7033347878695
9	703	68	3.4510361217589
9	713	69	0.973
9	723	70	3.4520514445683
9	733	71	1.4572533714813
9	743	72	3.0777159308224
9	753	73	0.973
9	764	74	2.5450204504349
9	774	75	1.398357443187
9	784	76	3.0345600334863
9	794	77	1.5031154197596
9	804	78	0.973
9	814	79	4.5353915390402
9	824	80	0.973
9	834	81	3.0525628256413
9	844	82	1.2970712889234
9	854	83	3.0378613877402
9	864	84	0.973
9	874	85	4.2470710555766
9	892	86	0.973
9	902	87	3.2302837718897
9	912	88	3.4994106983582
9	924	89	1.4179701224904
9	936	90	0.973
9	948	91	2.1688013499236
9	960	92	0.973
9	972	93	5.4646095805654
9	984	94	0.973
9	996	95	8.2605703841122
9	1008	96	0.973
9	1020	97	1.3149631995738
9	1032	98	1.9331989781424
9	1042	99	0.973
9	1052	100	0.973
9	1062	101	5.4516129838315
9	1072	102	6.2487497583328
9	1082	103	5.5408670113195
9	1092	104	0.973
9	1102	105	4.0017534761515
9	1112	106	1.7215248823485
9	1122	107	0.973
9	1132	108	0.973
9	1142	109	7.9143296110099
9	1152	110	4.9765759768432
9	1162	111	0.973
9	1172	112	0.973
9	1182	113	2.5949750743285
9	1192	114	0.973
9	1202	115	0.973
9	1214	116	0.973
9	1226	117	3.779868836802
9	1238	118	4.5804897674451
9	1250	119	4.4093798282848
9	1262	120	8.5487982928527
9	1274	121	2.1939491787481
9	1286	122	0.973
9	1298	123	0.973
9	1311	124	0.973
9	1323	125	1.2852750080087
9	1335	126	3.3013244501557
9	1351	127	1.4584087824324
9	1367	128	3.1197055357299
9	1383	129	0.973
9	1399	130	1.2433460142944
9	1411	131	9.8018229977941
9	1423	132	7.6858118335283
9	1435	133	9.4621271877854
9	1447	134	5.5976747160159
9	1459	135	0.973
9	1471	136	2.4899082566682
9	1483	137	1.9470928775825
9	1493	138	1.9169822814203
9	1503	139	6.6650016009492
8	161	16	-0.30721754173283
8	171	17	0.76523482063785
8	181	18	-0.073846101900562
8	191	19	-0.87927338609006
8	201	20	0.10855594426394
8	211	21	0.5430426526349
8	221	22	0.18493673645426
8	231	23	-0.39689575319644
8	241	24	-0.17662184832152
8	251	25	0.36699160824064
8	261	26	0.22078223719727
8	271	27	-0.51001562541351
8	281	28	0.46144263336901
8	291	29	-0.58807911893818
8	301	30	-0.37468959642574
8	311	31	0.17583736907691
8	321	32	0.87720311805606
8	331	33	-0.75950915268622
8	341	34	0.24202619988937
8	351	35	-0.62513258524705
8	361	36	0.59405945716426
8	371	37	-0.099899849388748
8	381	38	-0.31491493999492
8	391	39	0.037816776428372
8	403	40	0.52480604718439
8	415	41	-0.38788566880394
8	427	42	0.55521224022377
8	439	43	0.33023136877455
8	451	44	-0.26853054594249
8	463	45	-0.87122174436226
8	475	46	0.6533049096819
8	487	47	-0.062633829191327
8	499	48	-0.65199583088979
8	511	49	1.0822700885823
8	523	50	-0.96782094519585
8	533	51	0.036532766185701
8	543	52	0.028176140319555
8	553	53	0.79479138441384
8	563	54	-0.28824300435372
8	573	55	0.32470223023556
8	583	56	-0.62349777300842
8	593	57	0.26607003763784
8	603	58	-0.16187964223791
8	613	59	-0.12496236097068
8	623	60	-0.013549299747682
8	633	61	-0.36033633574843
8	643	62	0.97064922766294
8	653	63	-0.80936361064669
8	663	64	0.33057141776662
8	673	65	0.091958852880634
8	683	66	-0.14047646238468
8	693	67	-0.017751194164157
8	703	68	0.5997577035334
8	713	69	-0.86627218474168
8	723	70	0.62091045244597
8	733	71	-0.11689649843611
8	743	72	0.45747137311846
8	753	73	-0.86691784623545
8	764	74	0.29742853287607
8	774	75	-0.13444984017406
8	784	76	0.45911448544357
8	794	77	-0.10210022223182
8	804	78	-0.51823337238748
8	814	79	0.97027112061624
8	824	80	-1.176154254307
8	834	81	0.49052081075497
8	844	82	-0.17255996058229
8	854	83	0.46353819423821
8	864	84	-0.66033828225918
8	874	85	0.88545295121148
8	892	86	-1.0837172931992
8	902	87	0.55864520648029
8	912	88	0.60779055852909
8	924	89	-0.13795667937957
8	936	90	-0.43680697511882
8	948	91	0.14775466775633
8	960	92	-4.0493071817793
8	972	93	1.8063413808274
8	984	94	-0.33093247546349
8	996	95	2.4524649926694
8	1008	96	-0.45307349749139
8	1020	97	-0.15954326868523
8	1032	98	0.084256167407148
8	1042	99	-0.84284421766186
8	1052	100	-4.1494280016748
8	1062	101	2.1430918511003
8	1072	102	1.9853496364085
8	1082	103	1.4212664190867
8	1092	104	-0.5339090884896
8	1102	105	0.81263262128923
8	1112	106	-0.02390689055901
8	1122	107	-0.53159035632852
8	1132	108	-2.7532598009747
8	1142	109	2.4593247350771
8	1152	110	1.1332801322867
8	1162	111	-0.32868898194283
8	1172	112	-0.22460451812949
8	1182	113	0.29467793258373
8	1192	114	-0.6686819071183
8	1202	115	-2.4714809236719
8	1214	116	-2.9461269052466
8	1226	117	1.4409155321773
8	1238	118	1.528189688758
8	1250	119	1.217998128381
8	1262	120	2.3642453478184
8	1274	121	0.1229273016369
8	1286	122	-0.50311698947169
8	1298	123	-0.38987427351531
8	1311	124	-0.33587922197766
8	1323	125	-0.1733387055574
8	1335	126	0.57299016918987
8	1351	127	-0.11452129227109
8	1367	128	0.47798427410889
8	1383	129	-0.77232411301229
8	1399	130	-0.18955677882768
8	1411	131	2.5100635003299
8	1423	132	1.5889868666884
8	1435	133	1.810456270352
8	1447	134	0.77151622910372
8	1459	135	-0.80846063527279
8	1471	136	0.045702130394059
8	1483	137	-0.089315404277297
8	1493	138	-0.094596471870318
8	1503	139	1.0225744403666
7	151	15	11.117513867288
7	161	16	10.810296325555
7	171	17	11.575531146193
7	181	18	11.501685044293
7	191	19	10.622411658203
7	201	20	10.730967602467
7	211	21	11.274010255101
7	221	22	11.458946991556
7	231	23	11.062051238359
7	241	24	10.885429390038
7	251	25	11.252420998278
7	261	26	11.473203235476
7	271	27	10.963187610062
7	281	28	11.424630243431
7	291	29	10.836551124493
7	301	30	10.461861528067
7	311	31	10.637698897144
7	321	32	11.5149020152
7	331	33	10.755392862514
7	341	34	10.997419062403
7	351	35	10.372286477156
7	361	36	10.966345934321
7	371	37	10.866446084932
7	381	38	10.551531144937
7	391	39	10.589347921365
7	403	40	11.11415396855
7	415	41	10.726268299746
7	427	42	11.28148053997
7	439	43	11.611711908744
7	451	44	11.343181362802
7	463	45	10.471959618439
7	475	46	11.125264528121
7	487	47	11.06263069893
7	499	48	10.41063486804
7	511	49	11.492904956622
7	523	50	10.525084011427
7	533	51	10.561616777612
7	543	52	10.589792917932
7	553	53	11.384584302346
7	563	54	11.096341297992
7	573	55	11.421043528227
7	583	56	10.797545755219
7	593	57	11.063615792857
7	603	58	10.901736150619
7	613	59	10.776773789648
7	623	60	10.763224489901
7	633	61	10.402888154152
7	643	62	11.373537381815
7	653	63	10.564173771168
7	663	64	10.894745188935
7	673	65	10.986704041816
7	683	66	10.846227579431
7	693	67	10.828476385267
7	703	68	11.4282340888
7	713	69	10.561961904059
7	723	70	11.182872356505
7	733	71	11.065975858068
7	743	72	11.523447231187
7	753	73	10.656529384951
7	764	74	10.953957917828
7	774	75	10.819508077653
7	784	76	11.278622563097
7	794	77	11.176522340865
7	804	78	10.658288968478
7	814	79	11.628560089094
7	824	80	10.452405834787
7	834	81	10.942926645542
7	844	82	10.77036668496
7	854	83	11.233904879198
7	864	84	10.573566596939
7	874	85	11.45901954815
7	892	86	10.375302254951
7	902	87	10.933947461431
7	912	88	11.54173801996
7	924	89	11.403781340581
7	936	90	10.966974365462
7	948	91	11.114729033218
7	960	92	7.065421851439
7	972	93	8.8717632322664
7	984	94	8.5408307568029
7	996	95	10.993295749472
7	1008	96	10.540222251981
7	1020	97	10.380678983296
7	1032	98	10.464935150703
7	1042	99	9.622090933041
7	1052	100	5.4726629313662
7	1062	101	7.6157547824665
7	1072	102	9.601104418875
7	1082	103	11.022370837962
7	1092	104	10.488461749472
7	1102	105	11.301094370761
7	1112	106	11.277187480202
7	1122	107	10.745597123874
7	1132	108	7.9923373228991
7	1142	109	10.451662057976
7	1152	110	11.584942190263
7	1162	111	11.25625320832
7	1172	112	11.031648690191
7	1182	113	11.326326622774
7	1192	114	10.657644715656
7	1202	115	8.186163791984
7	1214	116	5.2400368867374
7	1226	117	6.6809524189147
7	1238	118	8.2091421076727
7	1250	119	9.4271402360537
7	1262	120	11.791385583872
7	1274	121	11.914312885509
7	1286	122	11.411195896037
7	1298	123	11.021321622522
7	1311	124	10.685442400544
7	1323	125	10.512103694987
7	1335	126	11.085093864177
7	1351	127	10.970572571906
7	1367	128	11.448556846015
7	1383	129	10.676232733002
7	1399	130	10.486675954175
7	1411	131	12.996739454504
7	1423	132	14.585726321193
7	1435	133	16.396182591545
7	1447	134	17.167698820649
7	1459	135	16.359238185376
7	1471	136	16.40494031577
7	1483	137	16.315624911493
7	1493	138	16.221028439622
7	1503	139	17.243602879989
6	141	14	1156.8034521536
6	151	15	1146.1730426818
6	161	16	1135.7920885076
6	171	17	1124.6574604927
6	181	18	1113.5831297526
6	191	19	1103.3197226703
6	201	20	1092.951428498
6	211	21	1082.068531469
6	221	22	1071.013377662
6	231	23	1060.3411336983
6	241	24	1049.8435556332
6	251	25	1039.0766280554
6	261	26	1028.0984440413
6	271	27	1017.5997497421
6	281	28	1006.6325136386
6	291	29	996.22981243973
6	301	30	986.18095332842
6	311	31	975.95455713343
6	321	32	964.90084991189
6	331	33	954.58098579066
6	341	34	944.0288960754
6	351	35	934.07662483445
6	361	36	923.55434997242
6	371	37	913.13434545345
6	381	38	903.01745072651
6	391	39	892.86429696373
6	403	40	882.2079548524
6	415	41	871.91746419978
6	427	42	861.08673885154
6	439	43	849.93897663532
6	451	44	839.04901574052
6	463	45	828.99546664443
6	475	46	818.31471564692
6	487	47	807.7281618173
6	499	48	797.83555176312
6	511	49	786.91452450909
6	523	50	776.87009044861
6	533	51	766.71925945527
6	543	52	756.54134821045
6	553	53	745.59955836749
6	563	54	734.93480054376
6	573	55	723.95796952786
6	583	56	713.56175939559
6	593	57	702.89915367373
6	603	58	692.39256013017
6	613	59	682.00968359082
6	623	60	671.67121457257
6	633	61	661.67886172487
6	643	62	650.75416495205
6	653	63	640.6068913967
6	663	64	630.14209195827
6	673	65	619.60367165605
6	683	66	609.21268875996
6	693	67	598.83871199375
6	703	68	587.89015093144
6	713	69	577.73426967877
6	723	70	566.98123258927
6	733	71	556.34059885583
6	743	72	545.26007754381
6	753	73	535.01315241861
6	764	74	524.48023099984
6	774	75	514.07659158232
6	784	76	503.23148463008
6	794	77	492.48455348112
6	804	78	482.23593640538
6	814	79	471.05434245087
6	824	80	461.0036949935
6	834	81	450.49700832797
6	844	82	440.17907690421
6	854	83	429.41707932742
6	864	84	419.28768092874
6	874	85	408.31002516828
6	892	86	398.37056253912
6	902	87	387.89592194442
6	912	88	376.83902250131
6	924	89	365.91428453412
6	936	90	355.40800441025
6	948	91	344.76017641024
6	960	92	337.99155466545
6	972	93	329.82701190604
6	984	94	326.21934090252
6	996	95	324.74857856745
6	1008	96	323.33843167022
6	1020	97	321.94962962132
6	1032	98	320.54955517509
6	1042	99	319.26224250276
6	1052	100	318.53007021382
6	1062	101	317.50492871463
6	1072	102	316.20678742105
6	1082	103	314.69499729761
6	1092	104	313.25453545155
6	1102	105	311.7024684613
6	1112	106	310.15368478985
6	1122	107	308.67790854736
6	1132	108	307.58025883957
6	1142	109	306.3134224994
6	1152	110	305.14835316262
6	1162	111	304.33653412464
6	1172	112	303.54091392479
6	1182	113	302.72404107975
6	1192	114	301.95539464651
6	1202	115	301.36499538208
6	1214	116	300.98707551605
6	1226	117	297.59807562859
6	1238	118	291.5401625832
6	1250	119	284.28585436928
6	1262	120	274.96062727735
6	1274	121	266.06780633834
6	1286	122	260.22802200692
6	1298	123	248.34422461038
6	1311	124	238.71140872075
6	1323	125	227.41206194607
6	1335	126	219.52359702777
6	1351	127	215.86372160843
6	1367	128	215.90600791056
6	1383	129	220.06260746832
6	1399	130	224.76025258164
6	1411	131	226.93511862733
6	1423	132	230.57087696675
6	1435	133	233.52778407959
6	1447	134	235.59864094505
6	1459	135	237.36835291198
6	1471	136	239.14300885039
6	1483	137	240.90800281446
6	1493	138	242.66276350809
6	1503	139	244.52814440321
5	141	14	241.91314494319
5	151	15	245.16805859255
5	161	16	248.1829534557
5	171	17	251.34744588796
5	181	18	254.45283825523
5	191	19	257.19126394385
5	201	20	259.95767502751
5	211	21	262.90146918591
5	221	22	265.91677244736
5	231	23	268.8276367006
5	241	24	271.7068359096
5	251	25	274.97657993008
5	261	26	278.31047915771
5	271	27	281.46755883987
5	281	28	284.66801438393
5	291	29	287.70372752176
5	301	30	290.61425631121
5	311	31	293.54381804472
5	321	32	296.77003880436
5	331	33	299.79985279826
5	341	34	302.89784601878
5	351	35	305.81973823777
5	361	36	308.90897810083
5	371	37	311.99182970572
5	381	38	314.98918016199
5	391	39	317.99727314752
5	403	40	321.15444664311
5	415	41	324.18082610917
5	427	42	327.33806758894
5	439	43	330.58772780504
5	451	44	333.76223691174
5	463	45	336.69292541178
5	475	46	339.80644819074
5	487	47	343.01248072217
5	499	48	346.25569225558
5	511	49	349.83606198137
5	523	50	352.97485965564
5	533	51	355.8919198052
5	543	52	358.8167620489
5	553	53	361.96112127789
5	563	54	365.02586938302
5	573	55	368.18029844857
5	583	56	371.09649284738
5	593	57	374.04833603785
5	603	58	376.95698870828
5	613	59	379.84389637399
5	623	60	382.83788264153
5	633	61	385.73163481639
5	643	62	388.8953906933
5	653	63	391.83400739022
5	663	64	394.86457852758
5	673	65	397.97068926353
5	683	66	401.08019645781
5	693	67	404.18461455861
5	703	68	407.46097731763
5	713	69	410.36165370666
5	723	70	413.43245043651
5	733	71	416.47114759715
5	743	72	419.6354655779
5	753	73	422.56172947
5	764	74	425.56966670479
5	774	75	428.54068425414
5	784	76	431.63777381931
5	794	77	434.70682684623
5	804	78	437.63357391682
5	814	79	440.82675570018
5	824	80	443.69696763083
5	834	81	446.75530923514
5	844	82	449.8443195688
5	854	83	453.06627563346
5	864	84	456.098842438
5	874	85	459.38536283542
5	892	86	462.36106615341
5	902	87	465.49699250429
5	912	88	468.80723709066
5	924	89	472.0779148154
5	936	90	475.22331349446
5	948	91	478.41108916113
5	960	92	480.437497523
5	972	93	483.76468018964
5	984	94	491.09961650912
5	996	95	501.99544161863
5	1008	96	512.44221034843
5	1020	97	522.73085037937
5	1032	98	533.10299953127
5	1042	99	542.63977743514
5	1052	100	548.06391770594
5	1062	101	555.60992822943
5	1072	102	565.12106245964
5	1082	103	576.03876124812
5	1092	104	586.42749871594
5	1102	105	597.62114229507
5	1112	106	608.79110629033
5	1122	107	619.43453428972
5	1132	108	627.350880479
5	1142	109	637.72418126311
5	1152	110	649.24869437878
5	1162	111	660.47582403417
5	1172	112	671.47893029567
5	1182	113	682.77595206301
5	1192	114	693.40602201873
5	1202	115	701.57100556805
5	1214	116	706.79748479143
5	1226	117	712.29152730643
5	1238	118	717.82619557378
5	1250	119	723.84610699524
5	1262	120	731.25348884729
5	1274	121	739.49599016224
5	1286	122	749.28717199122
5	1298	123	750.22309408327
5	1311	124	750.06374670449
5	1323	125	748.82216056182
5	1335	126	740.66998197393
5	1351	127	730.14498058338
5	1367	128	717.72432334762
5	1383	129	707.29369572819
5	1399	130	698.14476835088
5	1411	131	685.37073567281
5	1423	132	671.25866504932
5	1435	133	655.14949225134
5	1447	134	638.12828722656
5	1459	135	621.87952907236
5	1471	136	605.58537743127
5	1483	137	589.37993801426
5	1493	138	573.26845622389
5	1503	139	556.14130581938
vector 50 RSUExampleScenario.node[10].veinsmobility posx ETV
vector 51 RSUExampleScenario.node[10].veinsmobility posy ETV
vector 52 RSUExampleScenario.node[10].veinsmobility speed ETV
vector 53 RSUExampleScenario.node[10].veinsmobility acceleration ETV
vector 54 RSUExampleScenario.node[10].veinsmobility co2emission ETV
vector 55 RSUExampleScenario.node[11].veinsmobility posx ETV
vector 56 RSUExampleScenario.node[11].veinsmobility posy ETV
vector 57 RSUExampleScenario.node[11].veinsmobility speed ETV
vector 58 RSUExampleScenario.node[11].veinsmobility acceleration ETV
vector 59 RSUExampleScenario.node[11].veinsmobility co2emission ETV
vector 60 RSUExampleScenario.node[12].veinsmobility posx ETV
vector 61 RSUExampleScenario.node[12].veinsmobility posy ETV
vector 62 RSUExampleScenario.node[12].veinsmobility speed ETV
4	31	3	3.7547761313703
4	41	4	4.8771001745242
4	51	5	5.4857505436358
4	61	6	7.7989912180538
4	71	7	6.0356828869265
4	81	8	0.973
4	91	9	0.973
4	101	10	0.973
4	111	11	2.4320023028197
4	121	12	2.3606415898305
4	131	13	1.8139042068374
4	141	14	1.8093141593836
4	151	15	3.7398470039904
4	161	16	0.973
4	171	17	1.3222247532535
4	181	18	0.973
4	191	19	3.9230734537911
4	201	20	1.5096006908452
4	211	21	1.8390346098048
4	221	22	6.430232999833
4	231	23	5.4204209452457
4	241	24	2.4344546316184
4	251	25	2.5651085836338
4	261	26	0.973
4	271	27	0.973
4	281	28	4.7510961420279
4	291	29	4.0660578752983
4	301	30	7.9297163807621
4	311	31	3.7634466059458
4	321	32	4.3565998682818
4	331	33	0.973
4	341	34	2.8226295181449
4	351	35	0.973
4	361	36	6.6710951240992
4	371	37	7.6994789667581
4	381	38	2.1174225940369
4	391	39	1.2595428515247
4	403	40	0.973
4	415	41	4.7661697712961
4	427	42	0.973
4	439	43	0.973
4	451	44	4.7577479999582
4	463	45	7.0363567688161
4	475	46	6.3873449823592
4	487	47	7.1362516065131
4	499	48	1.263310700017
4	511	49	0.973
4	523	50	3.1600980489306
4	533	51	3.1459788004134
4	543	52	0.973
4	553	53	0.973
4	563	54	2.5183379925391
4	573	55	3.5662657274416
4	583	56	1.5356558092265
4	593	57	0.973
4	603	58	2.4237242336929
4	613	59	3.0769608347299
4	623	60	2.1711722764494
4	633	61	2.1820208769199
4	643	62	1.2597908633248
4	653	63	2.6938958256851
4	663	64	0.973
4	673	65	3.3035832284682
4	683	66	0.973
4	693	67	4.7456353985358
4	703	68	0.973
4	713	69	2.1692685530086
4	723	70	0.973
4	733	71	1.7134325839549
4	743	72	1.7638053425209
4	753	73	2.7839058821508
4	764	74	0.973
4	774	75	0.973
4	784	76	0.973
4	794	77	0.973
4	804	78	0.973
4	814	79	0.973
4	824	80	0.973
4	834	81	0.973
4	844	82	0.973
4	854	83	0.973
4	864	84	0.973
4	874	85	0.973
4	892	86	0.973
4	902	87	0.973
4	912	88	0.973
4	924	89	0.973
4	936	90	0.973
4	948	91	0.973
4	960	92	0.973
4	972	93	0.973
4	984	94	0.973
4	996	95	0.973
4	1008	96	0.973
4	1020	97	0.973
4	1032	98	0.973
4	1042	99	0.973
4	1052	100	0.973
4	1062	101	0.973
4	1072	102	0.973
4	1082	103	0.973
4	1092	104	0.973
4	1102	105	0.973
4	1112	106	0.973
4	1122	107	0.973
4	1132	108	0.973
4	1142	109	0.973
4	1152	110	0.973
4	1162	111	0.973
4	1172	112	0.973
4	1182	113	0.973
4	1192	114	0.973
4	1202	115	0.973
4	1214	116	0.973
4	1226	117	0.973
4	1238	118	0.973
4	1250	119	0.973
4	1262	120	0.973
4	1274	121	0.973
4	1286	122	0.973
4	1298	123	0.973
4	1311	124	1.695327704357
4	1323	125	2.949007722968
4	1335	126	3.4831156587951
4	1351	127	5.266118113631
4	1367	128	6.2956292108017
4	1383	129	8.8394418364491
4	1399	130	1.171420452937
4	1411	131	0.973
4	1423	132	2.277271432432
4	1435	133	4.5271380512404
4	1447	134	1.9244977519783
4	1459	135	1.3165024918669
4	1471	136	1.154683500129
4	1483	137	0.973
4	1493	138	4.4582235678596
4	1503	139	0.973
4	1513	140	0.973
4	1523	141	4.4728948426269
4	1533	142	2.4135055456482
4	1543	143	0.973
4	1553	144	2.4712841630996
4	1563	145	2.2249460048484
4	1573	146	0.973
4	1583	147	4.6834180728166
4	1593	148	0.973
4	1603	149	4.6804262983413
4	1613	150	0.973
4	1623	151	1.6243438442143
4	1633	152	3.4412734095787
4	1643	153	1.8842308383444
4	1653	154	1.8588956774483
4	1663	155	1.5173232412943
4	1673	156	2.7097223441558
4	1683	157	1.8570263126142
4	1693	158	1.1651425671836
4	1703	159	0.973
4	1713	160	2.2151970337707
4	1723	161	0.973
4	1733	162	3.1003836525651
4	1743	163	3.0337743467348
4	1753	164	1.7247509517257
4	1763	165	0.973
4	1773	166	3.8261806235015
4	1783	167	2.6768588307054
4	1793	168	1.3417318799724
4	1803	169	0.973
4	1813	170	3.1228769584736
3	31	3	2.3097215975402
3	41	4	2.1753469938878
3	51	5	1.9198876491515
3	61	6	2.3290013018763
3	71	7	1.4178105275333
3	81	8	-0.37967657484114
3	91	9	-0.26539824760985
3	101	10	-0.28567485553212
3	111	11	0.22627560230903
3	121	12	0.19142821677961
3	131	13	-0.0025797226931914
3	141	14	-0.0040860524866719
3	151	15	0.62818098375574
3	161	16	-0.82864982441533
3	171	17	-0.17134158615954
3	181	18	-3.7706846935517
3	191	19	1.1191589945591
3	201	20	-0.036361847422086
3	211	21	0.11671101350803
3	221	22	1.8430399890523
3	231	23	1.2568465598107
3	241	24	0.2007331083063
3	251	25	0.23401913109701
3	261	26	-3.3476374681553
3	271	27	-4.3725450053462
3	281	28	2.065569831524
3	291	29	1.3205505888676
3	301	30	2.475277706515
3	311	31	0.73923335413944
3	321	32	0.86525854810607
3	331	33	-0.52660172043834
3	341	34	0.3463471259055
3	351	35	-4.5
3	361	36	2.1872653045459
3	371	37	2.0997949530138
3	381	38	0.1034710326866
3	391	39	-0.19733900704887
3	403	40	-0.3612251302693
3	415	41	0.99056635394227
3	427	42	-4.2179038755953
3	439	43	-3.9929810992473
3	451	44	2.2328853990184
3	463	45	2.5772626519203
3	475	46	1.8253652398771
3	487	47	1.765726532121
3	499	48	-0.20436282765586
3	511	49	-0.75963758639991
3	523	50	0.46374235481489
3	533	51	0.42987335824873
3	543	52	-0.42290495529305
3	553	53	-0.27934064946603
3	563	54	0.24066877767909
3	573	55	0.56403360827826
3	583	56	-0.1139339807909
3	593	57	-1.085014008428
3	603	58	0.2275443459861
3	613	59	0.43491504483391
3	623	60	0.11313430701848
3	633	61	0.11240000391845
3	643	62	-0.2018297615461
3	653	63	0.28388725474942
3	663	64	-0.80547373222653
3	673	65	0.51315661247354
3	683	66	-0.43729765273165
3	693	67	0.95912287801039
3	703	68	-0.95442967428826
3	713	69	0.12886185280513
3	723	70	-0.26042735723313
3	733	71	-0.026737399538979
3	743	72	-0.0079557842342197
3	753	73	0.34638873778749
3	764	74	-4.5
3	774	75	-4.5
3	784	76	-2.610433347309
3	794	77	0
3	804	78	0
3	814	79	0
3	824	80	0
3	834	81	0
3	844	82	0
3	854	83	0
3	864	84	0
3	874	85	0
3	892	86	0
3	902	87	0
3	912	88	0
3	924	89	0
3	936	90	0
3	948	91	0
3	960	92	0
3	972	93	0
3	984	94	0
3	996	95	0
3	1008	96	0
3	1020	97	0
3	1032	98	0
3	1042	99	0
3	1052	100	0
3	1062	101	0
3	1072	102	0
3	1082	103	0
3	1092	104	0
3	1102	105	0
3	1112	106	0
3	1122	107	0
3	1132	108	0
3	1142	109	0
3	1152	110	0
3	1162	111	0
3	1172	112	0
3	1182	113	0
3	1192	114	0
3	1202	115	0
3	1214	116	0
3	1226	117	0
3	1238	118	0
3	1250	119	0
3	1262	120	0
3	1274	121	0
3	1286	122	0
3	1298	123	0
3	1311	124	1.4611877845367
3	1323	125	1.9999393696431
3	1335	126	1.6982027534861
3	1351	127	2.1415032495977
3	1367	128	2.0638961436925
3	1383	129	2.4588298490038
3	1399	130	-0.22970810116271
3	1411	131	-0.47188077182509
3	1423	132	0.17944643385708
3	1435	133	0.90438729119487
3	1447	134	0.019008091860451
3	1459	135	-0.1845680948114
3	1471	136	-0.23785096853971
3	1483	137	-0.30908167692833
3	1493	138	0.86543385481928
3	1503	139	-0.79857899972703
3	1513	140	-0.34430311752949
3	1523	141	0.89571916116402
3	1533	142	0.18187282197177
3	1543	143	-0.93367840172723
3	1553	144	0.23543684592005
3	1563	145	0.14122024693061
3	1573	146	-0.38385077011772
3	1583	147	0.94733568220399
3	1593	148	-0.88228736293968
3	1603	149	0.94014076031744
3	1613	150	-0.62219355283305
3	1623	151	-0.069395463983529
3	1633	152	0.53554889645893
3	1643	153	0.0058721822453656
3	1653	154	-0.0026589288609102
3	1663	155	-0.11636837630067
3	1673	156	0.27797175992746
3	1683	157	-0.0079002724494774
3	1693	158	-0.23760560082737
3	1703	159	-0.57156471787021
3	1713	160	0.1397743341513
3	1723	161	-0.39782901199069
3	1733	162	0.45035962976981
3	1743	163	0.40071687819436
3	1753	164	-0.045397029723972
3	1763	165	-0.74409127682448
3	1773	166	0.6808839159552
3	1783	167	0.27020388992969
3	1793	168	-0.17724607402924
3	1803	169	-0.55151819535531
3	1813	170	0.43964645825326
2	21	2	2.05
2	31	3	4.3597215975402
2	41	4	6.535068591428
2	51	5	8.4549562405795
2	61	6	10.783957542456
2	71	7	12.201768069989
2	81	8	11.822091495148
2	91	9	11.556693247538
2	101	10	11.271018392006
2	111	11	11.497293994315
2	121	12	11.688722211095
2	131	13	11.686142488401
2	141	14	11.682056435915
2	151	15	12.31023741967
2	161	16	11.481587595255
2	171	17	11.310246009096
2	181	18	7.5395613155438
2	191	19	8.6587203101029
2	201	20	8.6223584626808
2	211	21	8.7390694761888
2	221	22	10.582109465241
2	231	23	11.838956025052
2	241	24	12.039689133358
2	251	25	12.273708264455
2	261	26	8.9260707962999
2	271	27	4.5535257909537
2	281	28	6.6190956224777
2	291	29	7.9396462113454
2	301	30	10.41492391786
2	311	31	11.154157272
2	321	32	12.019415820106
2	331	33	11.492814099668
2	341	34	11.839161225573
2	351	35	7.3391612255731
2	361	36	9.5264265301189
2	371	37	11.626221483133
2	381	38	11.729692515819
2	391	39	11.53235350877
2	403	40	11.171128378501
2	415	41	12.161694732443
2	427	42	7.9437908568481
2	439	43	3.9508097576008
2	451	44	6.1836951566192
2	463	45	8.7609578085395
2	475	46	10.586323048417
2	487	47	12.352049580538
2	499	48	12.147686752882
2	511	49	11.388049166482
2	523	50	11.851791521297
2	533	51	12.281664879546
2	543	52	11.858759924252
2	553	53	11.579419274786
2	563	54	11.820088052466
2	573	55	12.384121660744
2	583	56	12.270187679953
2	593	57	11.185173671525
2	603	58	11.412718017511
2	613	59	11.847633062345
2	623	60	11.960767369363
2	633	61	12.073167373282
2	643	62	11.871337611736
2	653	63	12.155224866485
2	663	64	11.349751134259
2	673	65	11.862907746732
2	683	66	11.425610094001
2	693	67	12.384732972011
2	703	68	11.430303297723
2	713	69	11.559165150528
2	723	70	11.298737793295
2	733	71	11.272000393756
2	743	72	11.264044609521
2	753	73	11.610433347309
2	764	74	7.110433347309
2	774	75	2.610433347309
2	784	76	0
2	794	77	0
2	804	78	0
2	814	79	0
2	824	80	0
2	834	81	0
2	844	82	0
2	854	83	0
2	864	84	0
2	874	85	0
2	892	86	0
2	902	87	0
2	912	88	0
2	924	89	0
2	936	90	0
2	948	91	0
2	960	92	0
2	972	93	0
2	984	94	0
2	996	95	0
2	1008	96	0
2	1020	97	0
2	1032	98	0
2	1042	99	0
2	1052	100	0
2	1062	101	0
2	1072	102	0
2	1082	103	0
2	1092	104	0
2	1102	105	0
2	1112	106	0
2	1122	107	0
2	1132	108	0
2	1142	109	0
2	1152	110	0
2	1162	111	0
2	1172	112	0
2	1182	113	0
2	1192	114	0
2	1202	115	0
2	1214	116	0
2	1226	117	0
2	1238	118	0
2	1250	119	0
2	1262	120	0
2	1274	121	0
2	1286	122	0
2	1298	123	0
2	1311	124	1.4611877845367
2	1323	125	3.4611271541798
2	1335	126	5.159329907666
2	1351	127	7.3008331572637
2	1367	128	9.3647293009562
2	1383	129	11.82355914996
2	1399	130	11.593851048797
2	1411	131	11.121970276972
2	1423	132	11.301416710829
2	1435	133	12.205804002024
2	1447	134	12.224812093885
2	1459	135	12.040243999073
2	1471	136	11.802393030534
2	1483	137	11.493311353605
2	1493	138	12.358745208424
2	1503	139	11.560166208697
2	1513	140	11.215863091168
2	1523	141	12.111582252332
2	1533	142	12.293455074304
2	1543	143	11.359776672577
2	1553	144	11.595213518497
2	1563	145	11.736433765427
2	1573	146	11.352582995309
2	1583	147	12.299918677513
2	1593	148	11.417631314574
2	1603	149	12.357772074891
2	1613	150	11.735578522058
2	1623	151	11.666183058075
2	1633	152	12.201731954534
2	1643	153	12.207604136779
2	1653	154	12.204945207918
2	1663	155	12.088576831617
2	1673	156	12.366548591545
2	1683	157	12.358648319095
2	1693	158	12.121042718268
2	1703	159	11.549478000398
2	1713	160	11.689252334549
2	1723	161	11.291423322558
2	1733	162	11.741782952328
2	1743	163	12.142499830523
2	1753	164	12.097102800799
2	1763	165	11.353011523974
2	1773	166	12.033895439929
2	1783	167	12.304099329859
2	1793	168	12.12685325583
2	1803	169	11.575335060474
2	1813	170	12.014981518728
1	11	1	280.98021276596
1	21	2	279.39186798702
1	31	3	275.98552974236
1	41	4	271.03637422808
1	51	5	265.77913215113
1	61	6	254.51231138095
1	71	7	243.74735282511
1	81	8	231.34436658933
1	91	9	222.09211866103
1	101	10	216.55257854713
1	111	11	218.5057636042
1	121	12	218.89041808324
1	131	13	226.60482104431
1	141	14	237.72772605284
1	151	15	250.76102753219
1	161	16	262.02267999212
1	171	17	269.83126903333
1	181	18	275.93044591954
1	191	19	284.41988925514
1	201	20	292.95699058393
1	211	21	297.77221326312
1	221	22	298.53541197294
1	231	23	299.3892564728
1	241	24	300.25757816644
1	251	25	301.14277769522
1	261	26	301.78654023971
1	271	27	302.11494782425
1	281	28	302.81588878568
1	291	29	303.68461665363
1	301	30	305.08298316798
1	311	31	306.61487014617
1	321	32	308.26558979548
1	331	33	309.84398714391
1	341	34	311.46995103091
1	351	35	312.47789499639
1	361	36	313.77379807212
1	371	37	315.34291465208
1	381	38	316.91219745383
1	391	39	318.45507882098
1	403	40	319.94963288682
1	415	41	321.57671205859
1	427	42	322.63948965106
1	439	43	323.16805745429
1	451	44	325.1092587292
1	463	45	332.09787811659
1	475	46	342.18308120035
1	487	47	354.01615526756
1	499	48	365.65345287997
1	511	49	376.56302933442
1	523	50	387.91686385283
1	533	51	399.6825104559
1	543	52	411.04302059747
1	553	53	422.13592668082
1	563	54	433.4593897623
1	573	55	445.32318839048
1	583	56	457.09012430032
1	593	57	467.84538421266
1	603	58	478.81944256787
1	613	59	490.21169955677
1	623	60	501.71274241818
1	633	61	513.32186507269
1	643	62	524.73691550202
1	653	63	536.42494168482
1	663	64	547.33845335429
1	673	65	558.74539792923
1	683	66	569.73185284059
1	693	67	581.64056574667
1	703	68	592.61055469369
1	713	69	603.68431784154
1	723	70	614.50858971267
1	733	71	625.30987465757
1	743	72	636.12934403233
1	753	73	647.28153069206
1	764	74	654.11132571769
1	774	75	656.6187291092
1	784	76	656.6187291092
1	794	77	656.6187291092
1	804	78	656.6187291092
1	814	79	656.6187291092
1	824	80	656.6187291092
1	834	81	656.6187291092
1	844	82	656.6187291092
1	854	83	656.6187291092
1	864	84	656.6187291092
1	874	85	656.6187291092
1	892	86	656.6187291092
1	902	87	656.6187291092
1	912	88	656.6187291092
1	924	89	656.6187291092
1	936	90	656.6187291092
1	948	91	656.6187291092
1	960	92	656.6187291092
1	972	93	656.6187291092
1	984	94	656.6187291092
1	996	95	656.6187291092
1	1008	96	656.6187291092
1	1020	97	656.6187291092
1	1032	98	656.6187291092
1	1042	99	656.6187291092
1	1052	100	656.6187291092
1	1062	101	656.6187291092
1	1072	102	656.6187291092
1	1082	103	656.6187291092
1	1092	104	656.6187291092
1	1102	105	656.6187291092
1	1112	106	656.6187291092
1	1122	107	656.6187291092
1	1132	108	656.6187291092
1	1142	109	656.6187291092
1	1152	110	656.6187291092
1	1162	111	656.6187291092
1	1172	112	656.6187291092
1	1182	113	656.6187291092
1	1192	114	656.6187291092
1	1202	115	656.6187291092
1	1214	116	656.6187291092
1	1226	117	656.6187291092
1	1238	118	656.6187291092
1	1250	119	656.6187291092
1	1262	120	656.6187291092
1	1274	121	656.6187291092
1	1286	122	656.6187291092
1	1298	123	656.6187291092
1	1311	124	658.02224596603
1	1323	125	661.34676753399
1	1335	126	666.30246629633
1	1351	127	673.3151463321
1	1367	128	682.31093949306
1	1383	129	693.7061714368
1	1399	130	704.88001682012
1	1411	131	715.59907606193
1	1423	132	726.47165028109
1	1435	133	738.2027240022
1	1447	134	749.95206651796
1	1459	135	761.52401949622
1	1471	136	772.86737243748
1	1483	137	783.86635327001
1	1493	138	795.60977244484
1	1503	139	806.59437284156
1	1513	140	817.32608697857
1	1523	141	828.95383685984
1	1533	142	840.75619412436
1	1543	143	851.66217148586
1	1553	144	862.79418048386
1	1563	145	874.06176827539
1	1573	146	884.94886216392
1	1583	147	896.74213614238
1	1593	148	907.6894649669
1	1603	149	919.53820930933
1	1613	150	930.7972728768
1	1623	151	941.99081277389
1	1633	152	953.69820436604
1	1643	153	965.41123023513
1	1653	154	977.13156692075
1	1663	155	988.75456250934
1	1673	156	1000.6264331484
1	1683	157	1012.4896818675
1	1693	158	1024.1093614938
1	1703	159	1035.1601393743
1	1713	160	1046.3446562099
1	1723	161	1057.2125824289
1	1733	162	1068.5410911302
1	1743	163	1080.2562127216
1	1753	164	1091.9334217474
1	1763	165	1102.9032179711
1	1773	166	1114.5309152102
1	1783	167	1126.3670786403
1	1793	168	1138.0320820782
1	1803	169	1149.126383249
1	1813	170	1160.6156265895
0	11	1	730.64574468085
0	21	2	731.91854398719
0	31	3	734.47089884094
0	41	4	738.47401719297
0	51	5	745.08956637917
0	61	6	748.55689486082
0	71	7	750.51319690309
0	81	8	750.72440634757
0	91	9	743.58036633033
0	101	10	733.69284185119
0	111	11	721.49716699214
0	121	12	709.5144474009
0	131	13	700.39754690664
0	141	14	695.44359563931
0	151	15	695.13728071004
0	161	16	699.92148834731
0	171	17	708.4950955849
0	181	18	712.24012915793
0	191	19	712.83692423902
0	201	20	713.22633749033
0	211	21	706.91131971539
0	221	22	696.35658957606
0	231	23	684.54826474383
0	241	24	672.5397261645
0	251	25	660.29777393695
0	261	26	651.39479776108
0	271	27	646.85305340814
0	281	28	640.27134975916
0	291	29	632.37908870425
0	301	30	622.05913348195
0	311	31	611.01102992382
0	321	32	599.10589469482
0	331	33	587.72235425774
0	341	34	575.9957597628
0	351	35	568.7263792733
0	361	36	559.28545867001
0	371	37	547.76149963624
0	381	38	536.13766406681
0	391	39	524.70938657926
0	403	40	513.63907427383
0	415	41	501.58713517783
0	427	42	493.71503464379
0	439	43	489.79987975575
0	451	44	484.02704836458
0	463	45	479.04431273183
0	475	46	475.84691730532
0	487	47	472.30390346868
0	499	48	468.8195082703
0	511	49	465.55300456125
0	523	50	462.1534827997
0	533	51	458.63065783681
0	543	52	455.22913728566
0	553	53	451.90774171942
0	563	54	448.51731365749
0	573	55	444.96510039017
0	583	56	441.48756756671
0	593	57	438.41613605461
0	603	58	435.28222121457
0	613	59	432.02887937115
0	623	60	428.74447102078
0	633	61	425.42919780195
0	643	62	422.16934672568
0	653	63	418.83154064524
0	663	64	415.71491641463
0	673	65	412.45738016634
0	683	66	409.31992518189
0	693	67	405.91909652815
0	703	68	402.70861575702
0	713	69	399.39389897006
0	723	70	396.15386257061
0	733	71	392.93041692443
0	743	72	389.79688894289
0	753	73	386.56699958849
0	764	74	384.58895860702
0	774	75	383.86276599848
0	784	76	383.86276599848
0	794	77	383.86276599848
0	804	78	383.86276599848
0	814	79	383.86276599848
0	824	80	383.86276599848
0	834	81	383.86276599848
0	844	82	383.86276599848
0	854	83	383.86276599848
0	864	84	383.86276599848
0	874	85	383.86276599848
0	892	86	383.86276599848
0	902	87	383.86276599848
0	912	88	383.86276599848
0	924	89	383.86276599848
0	936	90	383.86276599848
0	948	91	383.86276599848
0	960	92	383.86276599848
0	972	93	383.86276599848
0	984	94	383.86276599848
0	996	95	383.86276599848
0	1008	96	383.86276599848
0	1020	97	383.86276599848
0	1032	98	383.86276599848
0	1042	99	383.86276599848
0	1052	100	383.86276599848
0	1062	101	383.86276599848
0	1072	102	383.86276599848
0	1082	103	383.86276599848
0	1092	104	383.86276599848
0	1102	105	383.86276599848
0	1112	106	383.86276599848
0	1122	107	383.86276599848
0	1132	108	383.86276599848
0	1142	109	383.86276599848
0	1152	110	383.86276599848
0	1162	111	383.86276599848
0	1172	112	383.86276599848
0	1182	113	383.86276599848
0	1192	114	383.86276599848
0	1202	115	383.86276599848
0	1214	116	383.86276599848
0	1226	117	383.86276599848
0	1238	118	383.86276599848
0	1250	119	383.86276599848
0	1262	120	383.86276599848
0	1274	121	383.86276599848
0	1286	122	383.86276599848
0	1298	123	383.86276599848
0	1311	124	383.45628032056
0	1323	125	382.49343445469
0	1335	126	381.05816806573
0	1351	127	379.02716004153
0	1367	128	376.42438666065
0	1383	129	373.27056711305
0	1399	130	370.17801997002
0	1411	131	367.21134243896
0	1423	132	364.12791135111
0	1435	133	360.75671180159
0	1447	134	357.38026228487
0	1459	135	354.05478981791
0	1471	136	350.79501094048
0	1483	137	347.46676285311
0	1493	138	343.61550969591
0	1503	139	340.01311108195
0	1513	140	336.75789206308
0	1523	141	333.36860583378
0	1533	142	329.92842459852
0	1543	143	326.74952246649
0	1553	144	323.50473605582
0	1563	145	320.2204307922
0	1573	146	317.00278581819
0	1583	147	313.50877148925
0	1593	148	310.26538684082
0	1603	149	306.75493820816
0	1613	150	303.44457302858
0	1623	151	300.15735624868
0	1633	152	296.71923618618
0	1643	153	293.27946150057
0	1653	154	289.87446969207
0	1663	155	286.55166036498
0	1673	156	283.0887963342
0	1683	157	279.62455330698
0	1693	158	276.17492367221
0	1703	159	272.81753974566
0	1713	160	269.41952401716
0	1723	161	266.35948298278
0	1733	162	263.27149385079
0	1743	163	260.07811958523
0	1753	164	256.91851809177
0	1763	165	253.99350955727
0	1773	166	250.89307697242
0	1783	167	247.53215053561
0	1793	168	244.21708316492
0	1803	169	240.9165740385
0	1813	170	237.40111534245
vector 63 RSUExampleScenario.node[12].veinsmobility acceleration ETV
vector 64 RSUExampleScenario.node[12].veinsmobility co2emission ETV
29	834	81	6.6881035370414
29	844	82	1.1707910712986
29	854	83	1.8695862833208
29	864	84	4.9553200317769
29	874	85	1.8057713724366
29	892	86	4.7438686150596
29	902	87	0.973
29	912	88	5.6172065714488
29	924	89	0.973
29	936	90	5.1222181852268
29	948	91	1.569139607216
29	960	92	5.2886202616227
29	972	93	0.973
29	984	94	8.0202258998943
29	996	95	0.973
29	1008	96	4.9918741338344
29	1020	97	1.1795425377774
29	1032	98	3.2280120618965
29	1042	99	2.7151485687848
29	1052	100	0.973
29	1062	101	7.0715933618916
29	1072	102	0.973
29	1082	103	3.6141260643563
29	1092	104	1.9082514366374
29	1102	105	6.7697514729518
29	1112	106	2.5687935182336
29	1122	107	2.0000052193868
29	1132	108	0.973
29	1142	109	1.7289396927523
29	1152	110	4.6243094786804
29	1162	111	5.666901059698
29	1172	112	2.4117367347179
29	1182	113	3.3009144315868
29	1192	114	0.973
29	1202	115	4.4625578946812
29	1214	116	4.9320215880616
29	1226	117	0.973
29	1238	118	2.2440928346953
29	1250	119	2.5516419559577
29	1262	120	7.0223857984082
29	1274	121	0.973
29	1286	122	7.7521546016369
29	1298	123	0.973
29	1311	124	4.3188019833107
29	1323	125	0.973
29	1335	126	4.8391763115687
29	1351	127	2.1907724181921
29	1367	128	2.3811662152705
29	1383	129	3.6306669331265
29	1399	130	2.1982258777618
29	1411	131	1.3249814935425
29	1423	132	2.4835209863886
29	1435	133	5.5171921705654
29	1447	134	0.973
29	1459	135	5.7853698591608
29	1471	136	0.973
29	1483	137	2.5850631346807
29	1493	138	8.0389720459037
29	1503	139	0.973
29	1513	140	3.5974766947023
29	1523	141	6.5338278212201
29	1533	142	1.0370045328856
29	1543	143	1.1097447812668
29	1553	144	2.4137949197619
29	1563	145	2.0710450339668
29	1573	146	2.8591048650531
29	1583	147	0.79187912759103
29	1593	148	3.7165363749272
29	1603	149	2.5144420298908
29	1613	150	6.4897119817269
29	1623	151	0.973
29	1633	152	0.973
29	1643	153	7.8122104669998
29	1653	154	1.6829431531865
29	1663	155	3.0988594103938
29	1673	156	0.973
29	1683	157	7.533215608662
29	1693	158	0.973
29	1703	159	2.5822755279845
29	1713	160	1.0572841930732
29	1723	161	5.0926641485341
29	1733	162	0.973
29	1743	163	6.3814997407734
29	1753	164	1.1304618632346
29	1763	165	5.5942911975399
29	1773	166	0.973
29	1783	167	0.973
29	1793	168	0.973
29	1803	169	9.2178464398769
29	1813	170	4.1133212369967
29	1825	171	1.695741036003
29	1837	172	1.9174627806839
28	834	81	0.88981759718154
28	844	82	-0.31851076858584
28	854	83	-0.15851543333847
28	864	84	0.50704208416864
28	874	85	-0.18029856204521
28	892	86	0.4457036151085
28	902	87	-1.1439517272636
28	912	88	0.66661782586016
28	924	89	-0.61122239336837
28	936	90	0.55990884364583
28	948	91	-0.22662860448472
28	960	92	0.57486947439611
28	972	93	-0.99564108802006
28	984	94	1.1567819823045
28	996	95	-0.74193504680879
28	1008	96	0.513983797119
28	1020	97	-0.3172986012185
28	1032	98	0.13431783120614
28	1042	99	0.020071237231605
28	1052	100	-0.75881938438397
28	1062	101	0.9663736609742
28	1072	102	-0.74298301520757
28	1082	103	0.23236447153613
28	1092	104	-0.14767969979439
28	1102	105	0.88257665948477
28	1112	106	-0.025068038515744
28	1122	107	-0.14464260425884
28	1132	108	-0.81973507932853
28	1142	109	-0.18205153050367
28	1152	110	0.45827460216824
28	1162	111	0.64838647705037
28	1172	112	-0.056248415447769
28	1182	113	0.1320351333823
28	1192	114	-1.2117495741229
28	1202	115	0.42537009036168
28	1214	116	0.50117095555179
28	1226	117	-0.74748488077894
28	1238	118	-0.065784376696683
28	1250	119	0.0045697021763758
28	1262	120	0.94822271210142
28	1274	121	-1.0619614062831
28	1286	122	1.1034006661968
28	1298	123	-0.61022211126983
28	1311	124	0.36972846959252
28	1323	125	-0.47058931656647
28	1335	126	0.48349940916523
28	1351	127	-0.09632847884204
28	1367	128	-0.052693938068117
28	1383	129	0.21484298473224
28	1399	130	-0.096466542920098
28	1411	131	-0.28402733255643
28	1423	132	-0.024175342754461
28	1435	133	0.61462791806552
28	1447	134	-0.91350067083258
28	1459	135	0.68811745494604
28	1471	136	-0.83558610728942
28	1483	137	0.012572204438037
28	1493	138	1.1516520448728
28	1503	139	-1.0891717872582
28	1513	140	0.23149889376946
28	1523	141	0.82930364252534
28	1533	142	-0.35264780116268
28	1543	143	-0.33189215033781
28	1553	144	-0.038776576914824
28	1563	145	-0.11275651021861
28	1573	146	0.062896050116979
28	1583	147	-0.39815186755732
28	1593	148	0.26205776487477
28	1603	149	-0.010056691942737
28	1613	150	0.82676088945009
28	1623	151	-0.50017457439099
28	1633	152	-0.48505048775114
28	1643	153	1.1030446935212
28	1653	154	-0.21404318383429
28	1663	155	0.091290987096727
28	1673	156	-0.96280311825685
28	1683	157	1.0462965754559
28	1693	158	-0.58626717543229
28	1703	159	-0.0047592699527748
28	1713	160	-0.34012844462413
28	1723	161	0.54242268593516
28	1733	162	-0.7591220148839
28	1743	163	0.82187691298313
28	1753	164	-0.32750063547864
28	1763	165	0.62896227646521
28	1773	166	-4.5
28	1783	167	-4.5
28	1793	168	-0.62211527682306
28	1803	169	2.5276067882543
28	1813	170	0.71094237675766
28	1825	171	-0.071235511312262
28	1837	172	0.0010322732385255
27	824	80	17.981589371603
27	834	81	18.871406968784
27	844	82	18.552896200198
27	854	83	18.39438076686
27	864	84	18.901422851029
27	874	85	18.721124288983
27	892	86	19.166827904092
27	902	87	18.022876176828
27	912	88	18.689494002688
27	924	89	18.07827160932
27	936	90	18.638180452966
27	948	91	18.411551848481
27	960	92	18.986421322877
27	972	93	17.990780234857
27	984	94	19.147562217162
27	996	95	18.405627170353
27	1008	96	18.919610967472
27	1020	97	18.602312366253
27	1032	98	18.73663019746
27	1042	99	18.756701434691
27	1052	100	17.997882050307
27	1062	101	18.964255711281
27	1072	102	18.221272696074
27	1082	103	18.45363716761
27	1092	104	18.305957467816
27	1102	105	19.1885341273
27	1112	106	19.163466088785
27	1122	107	19.018823484526
27	1132	108	18.199088405197
27	1142	109	18.017036874694
27	1152	110	18.475311476862
27	1162	111	19.123697953912
27	1172	112	19.067449538464
27	1182	113	19.199484671847
27	1192	114	17.987735097724
27	1202	115	18.413105188085
27	1214	116	18.914276143637
27	1226	117	18.166791262858
27	1238	118	18.101006886162
27	1250	119	18.105576588338
27	1262	120	19.053799300439
27	1274	121	17.991837894156
27	1286	122	19.095238560353
27	1298	123	18.485016449083
27	1311	124	18.854744918676
27	1323	125	18.384155602109
27	1335	126	18.867655011275
27	1351	127	18.771326532433
27	1367	128	18.718632594364
27	1383	129	18.933475579097
27	1399	130	18.837009036177
27	1411	131	18.55298170362
27	1423	132	18.528806360866
27	1435	133	19.143434278931
27	1447	134	18.229933608099
27	1459	135	18.918051063045
27	1471	136	18.082464955755
27	1483	137	18.095037160193
27	1493	138	19.246689205066
27	1503	139	18.157517417808
27	1513	140	18.389016311577
27	1523	141	19.218319954103
27	1533	142	18.86567215294
27	1543	143	18.533780002602
27	1553	144	18.495003425687
27	1563	145	18.382246915469
27	1573	146	18.445142965586
27	1583	147	18.046991098028
27	1593	148	18.309048862903
27	1603	149	18.29899217096
27	1613	150	19.12575306041
27	1623	151	18.62557848602
27	1633	152	18.140527998268
27	1643	153	19.24357269179
27	1653	154	19.029529507955
27	1663	155	19.120820495052
27	1673	156	18.158017376795
27	1683	157	19.204313952251
27	1693	158	18.618046776819
27	1703	159	18.613287506866
27	1713	160	18.273159062242
27	1723	161	18.815581748177
27	1733	162	18.056459733293
27	1743	163	18.878336646276
27	1753	164	18.550836010798
27	1763	165	19.179798287263
27	1773	166	14.679798287263
27	1783	167	10.179798287263
27	1793	168	9.5576830104398
27	1803	169	12.085289798694
27	1813	170	12.796232175452
27	1825	171	12.72499666414
27	1837	172	12.726028937378
26	814	79	811.69393771003
26	824	80	820.31077777896
26	834	81	828.7233500538
26	844	82	836.20609822687
26	854	83	842.00755013007
26	864	84	846.14705911919
26	874	85	847.69142356626
26	892	86	847.72343266693
26	902	87	847.31749416104
26	912	88	846.92418640042
26	924	89	844.34073992087
26	936	90	846.62059886165
26	948	91	849.58884612604
26	960	92	854.18403777507
26	972	93	858.50092073795
26	984	94	862.55316868213
26	996	95	865.50788198313
26	1008	96	867.49298003407
26	1020	97	869.27443329808
26	1032	98	868.65311729074
26	1042	99	865.35120445013
26	1052	100	859.69862564064
26	1062	101	852.44027282814
26	1072	102	844.20361510371
26	1082	103	835.70001567033
26	1092	104	827.18278750425
26	1102	105	818.03769332727
26	1112	106	808.78080018716
26	1122	107	799.59377651246
26	1132	108	790.80272504851
26	1142	109	782.0996133944
26	1152	110	773.17513265176
26	1162	111	763.93744946945
26	1172	112	754.72665763678
26	1182	113	745.44542013034
26	1192	114	736.74995540832
26	1202	115	727.56689911471
26	1214	116	718.37367065298
26	1226	117	709.65311732848
26	1238	118	700.96414229188
26	1250	119	692.27297367411
26	1262	120	683.12663239514
26	1274	121	674.49006144039
26	1286	122	665.25331143899
26	1298	123	656.28109211514
26	1311	124	647.12941474598
26	1323	125	638.20615105291
26	1335	126	629.04820740951
26	1351	127	619.93701948537
26	1367	128	610.93204067581
26	1383	129	601.84381562137
26	1399	130	592.80189530631
26	1411	131	583.89631046273
26	1423	132	575.00232998385
26	1435	133	565.81332301495
26	1447	134	557.06280393218
26	1459	135	547.98198277316
26	1471	136	539.30224986462
26	1483	137	530.61648219384
26	1493	138	521.3779120054
26	1503	139	512.66215329361
26	1513	140	503.83527319591
26	1523	141	494.61032048284
26	1533	142	485.55464163439
26	1543	143	476.17405530202
26	1553	144	466.20015750383
26	1563	145	456.28706650212
26	1573	146	445.87527397146
26	1583	147	434.45285641778
26	1593	148	422.35154252657
26	1603	149	410.20876744874
26	1613	150	396.33441627115
26	1623	151	382.40595797848
26	1633	152	368.20852874039
26	1643	153	352.63487371322
26	1653	154	337.01427260136
26	1663	155	321.31873426659
26	1673	156	306.95819179065
26	1683	157	292.81005442199
26	1693	158	280.50182630057
26	1703	159	268.91415826227
26	1713	160	259.58281549434
26	1723	161	251.53193213807
26	1733	162	244.80542609013
26	1743	163	239.76932846157
26	1753	164	235.27699040021
26	1763	165	231.91700982103
26	1773	166	229.20243996962
26	1783	167	227.14931153065
26	1793	168	225.42510462107
26	1803	169	220.97097791244
26	1813	170	215.92657717057
26	1825	171	216.08076734972
26	1837	172	221.91073187521
25	814	79	2182.8197270944
25	824	80	2167.0231726509
25	834	81	2150.1255334218
25	844	82	2133.1492523624
25	854	83	2115.6966451255
25	864	84	2097.2585917435
25	874	85	2078.6209838445
25	892	86	2059.4486305125
25	902	87	2041.4186918294
25	912	88	2022.7237421798
25	924	89	2003.3259204492
25	936	90	1984.8507966351
25	948	91	1966.6929272196
25	960	92	1948.2855761978
25	972	93	1930.8331834643
25	984	94	1912.135692296
25	996	95	1894.0033361511
25	1008	96	1875.201250245
25	1020	97	1856.7052965706
25	1032	98	1838.0219513582
25	1042	99	1819.6172843847
25	1052	100	1802.5755560806
25	1062	101	1785.0699117717
25	1072	102	1768.8367398966
25	1082	103	1752.4735345622
25	1092	104	1736.2839171738
25	1102	105	1719.4308574537
25	1112	106	1702.66652178
25	1122	107	1686.0287204795
25	1132	108	1670.1080292242
25	1142	109	1654.3465979355
25	1152	110	1638.1842647835
25	1162	111	1621.4547185554
25	1172	112	1604.7745331881
25	1182	113	1587.9825252976
25	1192	114	1572.250322332
25	1202	115	1556.3052867742
25	1214	116	1539.7915104576
25	1226	117	1523.8688835376
25	1238	118	1508.0039145756
25	1250	119	1492.1349404119
25	1262	120	1475.434878564
25	1274	121	1459.6655928245
25	1286	122	1442.9681123449
25	1298	123	1426.8211356884
25	1311	124	1410.3511949175
25	1323	125	1394.2923219285
25	1335	126	1377.8111039719
25	1351	127	1361.414030582
25	1367	128	1345.0185052119
25	1383	129	1328.4237075296
25	1399	130	1311.9134607665
25	1411	131	1295.6521580549
25	1423	132	1279.4120445285
25	1435	133	1262.6332224113
25	1447	134	1246.6550646386
25	1459	135	1230.0737862239
25	1471	136	1214.2248816589
25	1483	137	1198.364957818
25	1493	138	1181.4956349049
25	1503	139	1165.5809484173
25	1513	140	1149.4633579627
25	1523	141	1132.6189001082
25	1533	142	1116.0835307192
25	1543	143	1100.1263779751
25	1553	144	1084.5663089595
25	1563	145	1069.1011033533
25	1573	146	1053.8921543626
25	1583	147	1039.969068862
25	1593	148	1026.2461637543
25	1603	149	1012.5772156261
25	1613	150	999.43212583994
25	1623	151	987.11127980139
25	1633	152	975.8392407252
25	1643	153	964.57222698337
25	1653	154	953.72688498942
25	1663	155	942.82951428
25	1673	156	931.76765673668
25	1683	157	918.82075979397
25	1693	158	904.90152241917
25	1703	159	890.37581254021
25	1713	160	874.67948037627
25	1723	161	857.71533271163
25	1733	162	841.0068005661
25	1743	163	822.82607363338
25	1753	164	804.85714233294
25	1763	165	785.9873537901
25	1773	166	771.57227361879
25	1783	167	761.60882348855
25	1793	168	752.38705697049
25	1803	169	742.33506015681
25	1813	170	730.50079772209
25	1825	171	716.69495994586
25	1837	172	704.80712174975
vector 65 RSUExampleScenario.node[13].veinsmobility posx ETV
vector 66 RSUExampleScenario.node[13].veinsmobility posy ETV
vector 67 RSUExampleScenario.node[13].veinsmobility speed ETV
vector 68 RSUExampleScenario.node[13].veinsmobility acceleration ETV
vector 69 RSUExampleScenario.node[13].veinsmobility co2emission ETV
44	1262	120	4.6342994795447
44	1274	121	0.973
44	1286	122	1.2915774941172
44	1298	123	3.0209576961654
44	1311	124	0.973
44	1323	125	1.6895235195183
44	1335	126	4.6906112167461
44	1351	127	0.973
44	1367	128	1.3546970928401
44	1383	129	3.0923942167151
44	1399	130	2.5848441134792
44	1411	131	0.973
44	1423	132	0.973
44	1435	133	3.2008186215117
44	1447	134	0.973
44	1459	135	3.6948933102418
44	1471	136	0.973
44	1483	137	0.973
44	1493	138	4.6687007540362
44	1503	139	0.973
44	1513	140	1.7777287029505
44	1523	141	1.4435242536918
44	1533	142	3.0829227626078
44	1543	143	0.973
44	1553	144	3.1577712093794
44	1563	145	0.973
44	1573	146	2.5009246619389
44	1583	147	4.1683670999426
44	1593	148	0.973
44	1603	149	4.3572791067614
44	1613	150	0.973
44	1623	151	2.2971633275184
44	1633	152	2.316762383517
44	1643	153	2.466772274548
44	1653	154	0.973
44	1663	155	2.5671769474427
44	1673	156	2.3360565343649
44	1683	157	1.2722825093566
44	1693	158	0.973
44	1703	159	2.447369239724
44	1713	160	0.973
44	1723	161	4.8127542297476
44	1733	162	0.973
44	1743	163	0.973
44	1753	164	2.3748461125593
44	1763	165	2.6411253983223
44	1773	166	0.973
44	1783	167	1.8573962119308
44	1793	168	4.5799848002982
44	1803	169	1.5660942443939
44	1813	170	1.5443233764736
44	1825	171	0.973
44	1837	172	7.1162635628833
44	1849	173	3.5623632798517
44	1863	174	0.973
44	1879	175	4.009910930337
44	1895	176	2.1278904956296
44	1915	177	2.2234266195645
44	1935	178	0.973
44	1955	179	2.3815935460511
44	1975	180	2.7080319992991
44	1995	181	1.7749601830755
44	2015	182	2.5225960126818
44	2033	183	0.973
44	2051	184	4.4513462129717
43	1262	120	1.0193256726488
43	1274	121	-0.41532455701381
43	1286	122	-0.17687683247495
43	1298	123	0.44782987891231
43	1311	124	-0.85470067283604
43	1323	125	-0.013398288236932
43	1335	126	1.0366981144529
43	1351	127	-0.8705957764294
43	1367	128	-0.14606559812091
43	1383	129	0.49976560398936
43	1399	130	0.29182048812509
43	1411	131	-0.38594331205823
43	1423	132	-0.22253543327097
43	1435	133	0.52426421092823
43	1447	134	-0.25023529385216
43	1459	135	0.66885717720725
43	1471	136	-0.50156516365241
43	1483	137	-0.44112337573897
43	1493	138	1.0081546088913
43	1503	139	-1.0709369228221
43	1513	140	0.016303521906957
43	1523	141	-0.11154789419379
43	1533	142	0.49467023501638
43	1543	143	-0.36323463986628
43	1553	144	0.51135110182222
43	1563	145	-0.67149081020616
43	1573	146	0.28920832753647
43	1583	147	0.83780458220281
43	1593	148	-1.1805879893713
43	1603	149	0.93251318393741
43	1613	150	-0.65200168108568
43	1623	151	0.20388384256512
43	1633	152	0.2013462320203
43	1643	153	0.24424280726817
43	1653	154	-0.97178663189989
43	1663	155	0.31863105718512
43	1673	156	0.21809127118904
43	1683	157	-0.18218011616263
43	1693	158	-0.23616219938267
43	1703	159	0.26851371906232
43	1713	160	-0.30519060322549
43	1723	161	1.0754641072592
43	1733	162	-0.26748901281971
43	1743	163	-0.82568052250426
43	1753	164	0.24484681456815
43	1763	165	0.32754681534134
43	1773	166	-0.56664870970417
43	1783	167	0.051414523110724
43	1793	168	0.99663548995741
43	1803	169	-0.085213630902581
43	1813	170	-0.091043836158731
43	1825	171	-3.2203988052206
43	1837	172	2.1747559851734
43	1849	173	0.67892861471142
43	1863	174	-0.44539134667721
43	1879	175	0.80961054775398
43	1895	176	0.11734208734706
43	1915	177	0.14555169981904
43	1935	178	-1.0920890128007
43	1955	179	0.24497887650505
43	1975	180	0.34847852413077
43	1995	181	0.00042260310146958
43	2015	182	0.26475311943796
43	2033	183	-0.68314506600145
43	2051	184	0.93849248790648
42	1250	119	10.492718497835
42	1262	120	11.512044170484
42	1274	121	11.096719613471
42	1286	122	10.919842780996
42	1298	123	11.367672659908
42	1311	124	10.512971987072
42	1323	125	10.499573698835
42	1335	126	11.536271813288
42	1351	127	10.665676036858
42	1367	128	10.519610438737
42	1383	129	11.019376042727
42	1399	130	11.311196530852
42	1411	131	10.925253218794
42	1423	132	10.702717785523
42	1435	133	11.226981996451
42	1447	134	10.976746702599
42	1459	135	11.645603879806
42	1471	136	11.144038716154
42	1483	137	10.702915340415
42	1493	138	11.711069949306
42	1503	139	10.640133026484
42	1513	140	10.656436548391
42	1523	141	10.544888654197
42	1533	142	11.039558889213
42	1543	143	10.676324249347
42	1553	144	11.187675351169
42	1563	145	10.516184540963
42	1573	146	10.8053928685
42	1583	147	11.643197450702
42	1593	148	10.462609461331
42	1603	149	11.395122645269
42	1613	150	10.743120964183
42	1623	151	10.947004806748
42	1633	152	11.148351038768
42	1643	153	11.392593846037
42	1653	154	10.420807214137
42	1663	155	10.739438271322
42	1673	156	10.957529542511
42	1683	157	10.775349426348
42	1693	158	10.539187226965
42	1703	159	10.807700946028
42	1713	160	10.502510342802
42	1723	161	11.577974450061
42	1733	162	11.310485437242
42	1743	163	10.484804914738
42	1753	164	10.729651729306
42	1763	165	11.057198544647
42	1773	166	10.490549834943
42	1783	167	10.541964358054
42	1793	168	11.538599848011
42	1803	169	11.453386217108
42	1813	170	11.36234238095
42	1825	171	8.1419435757291
42	1837	172	10.316699560902
42	1849	173	10.995628175614
42	1863	174	10.550236828937
42	1879	175	11.359847376691
42	1895	176	11.477189464038
42	1915	177	11.622741163857
42	1935	178	10.530652151056
42	1955	179	10.775631027561
42	1975	180	11.124109551692
42	1995	181	11.124532154793
42	2015	182	11.389285274231
42	2033	183	10.70614020823
42	2051	184	11.644632696136
41	1238	118	836.7059994293
41	1250	119	826.63710328879
41	1262	120	815.59005412404
41	1274	121	804.94155370811
41	1286	122	794.4627857077
41	1298	123	783.55427659297
41	1311	124	773.46594504307
41	1323	125	763.39047059716
41	1335	126	752.32017239363
41	1351	127	742.08530482279
41	1367	128	731.99060296187
41	1383	129	721.41632205171
41	1399	130	710.56200787969
41	1411	131	700.07804798012
41	1423	132	689.8076348526
41	1435	133	679.03413361772
41	1447	134	668.50076016146
41	1459	135	657.32554603717
41	1471	136	646.63370418692
41	1483	137	636.37707884179
41	1493	138	625.15433690278
41	1503	139	614.95787597565
41	1513	140	604.74579135061
41	1523	141	594.64060329743
41	1533	142	584.0613717609
41	1543	143	573.83022871194
41	1553	144	563.10905687136
41	1563	145	553.03137602775
41	1573	146	542.63371162786
41	1583	147	531.41372770555
41	1593	148	521.33141909243
41	1603	149	510.35049281218
41	1613	150	499.99786888701
41	1623	151	489.44877200455
41	1633	152	478.70564753683
41	1643	153	467.72715813758
41	1653	154	457.68513231992
41	1663	155	447.33031677056
41	1673	156	436.73973508179
41	1683	157	426.32523262647
41	1693	158	416.13898372543
41	1703	159	405.69321314433
41	1713	160	395.54241288492
41	1723	161	384.35216386682
41	1733	162	373.42044613811
41	1743	163	363.28675838399
41	1753	164	352.91642329245
41	1763	165	342.22951033623
41	1773	166	332.0902700489
41	1783	167	321.90133701788
41	1793	168	310.74914401759
41	1803	169	299.92073689978
41	1813	170	289.91834182157
41	1825	171	283.34309904621
41	1837	172	275.30474812838
41	1849	173	267.75243180907
41	1863	174	259.71188585636
41	1879	175	248.25884237651
41	1895	176	235.93615025299
41	1915	177	225.23030232062
41	1935	178	218.24544127298
41	1955	179	215.47011946933
41	1975	180	216.22493176728
41	1995	181	221.36730502442
41	2015	182	230.40090483874
41	2033	183	241.19726007397
41	2051	184	253.52189786553
40	1238	118	565.71467961936
40	1250	119	568.66638341945
40	1262	120	571.90483344857
40	1274	121	575.02644863899
40	1286	122	578.09830665555
40	1298	123	581.29614357412
40	1311	124	584.25354487778
40	1323	125	587.20717711261
40	1335	126	590.45244261337
40	1351	127	593.45280105195
40	1367	128	596.41206981666
40	1383	129	599.51192750813
40	1399	130	602.69387714212
40	1411	131	605.76725716747
40	1423	132	608.77803581033
40	1435	133	611.93629507645
40	1447	134	615.02416071979
40	1459	135	618.30018239458
40	1471	136	621.44209801543
40	1483	137	624.50020839441
40	1493	138	627.84637562285
40	1503	139	630.88654740849
40	1513	140	633.93137754822
40	1523	141	636.94433545856
40	1533	142	640.09863394123
40	1543	143	643.14914653129
40	1553	144	646.34576586535
40	1563	145	649.35052223958
40	1573	146	652.28900277194
40	1583	147	655.39925157984
40	1593	148	658.1941297688
40	1603	149	661.23811032254
40	1613	150	664.10792158474
40	1623	151	667.0321963636
40	1633	152	670.01025678688
40	1643	153	673.05356182217
40	1653	154	675.83727337155
40	1663	155	678.68494443134
40	1673	156	681.49651746684
40	1683	157	684.26134523004
40	1693	158	686.96557655412
40	1703	159	689.73870533627
40	1713	160	692.43352580381
40	1723	161	695.40429769571
40	1733	162	698.30643505709
40	1743	163	700.9967125203
40	1753	164	703.74981479261
40	1763	165	706.58696172028
40	1773	166	709.27871326236
40	1783	167	711.98365716557
40	1793	168	714.94432599829
40	1803	169	718.6172304712
40	1813	170	723.96998311536
40	1825	171	728.74591486944
40	1837	172	734.95559832511
40	1849	173	742.55028154801
40	1863	174	749.54592459721
40	1879	175	753.50102323613
40	1895	176	752.45011514591
40	1915	177	746.94720910406
40	1935	178	738.74913773227
40	1955	179	727.91685021333
40	1975	180	715.84580652683
40	1995	181	705.4592339707
40	2015	182	698.06464039269
40	2033	183	694.55900214384
40	2051	184	695.74390912235
39	1122	107	0.973
39	1132	108	0.973
39	1142	109	2.7917514640014
39	1152	110	2.2424805338437
39	1162	111	0.973
39	1172	112	1.8893398717986
39	1182	113	0.973
39	1192	114	5.4027136590581
39	1202	115	4.0394515291324
39	1214	116	0.973
39	1226	117	0.973
39	1238	118	0.973
39	1250	119	0.973
39	1262	120	1.6149167699288
39	1274	121	2.7565662934097
39	1286	122	4.7954244118185
39	1298	123	5.5101431279428
39	1311	124	3.070317283951
39	1323	125	0.973
39	1335	126	2.3893767843918
39	1351	127	0.973
39	1367	128	1.975348454137
39	1383	129	2.5263044792891
39	1399	130	0.973
39	1411	131	2.7531667821486
39	1423	132	2.2010831276056
39	1435	133	0.973
39	1447	134	3.6009612662345
39	1459	135	0.973
39	1471	136	0.973
39	1483	137	0.973
39	1493	138	0.973
39	1503	139	1.6521337577419
39	1513	140	0.973
39	1523	141	2.255959073889
39	1533	142	4.1061500546347
39	1543	143	5.9254519649804
39	1553	144	5.9956560506118
39	1563	145	0.973
39	1573	146	3.8027360079503
39	1583	147	0.973
39	1593	148	1.7695173768707
39	1603	149	0.973
39	1613	150	0.973
39	1623	151	0.973
39	1633	152	1.6518231362123
39	1643	153	2.3904488565202
39	1653	154	2.5313201214171
39	1663	155	0.973
39	1673	156	0.973
39	1683	157	0.973
39	1693	158	2.3195179608573
39	1703	159	1.6335462203674
39	1713	160	0.973
39	1723	161	0.973
39	1733	162	2.800048726378
39	1743	163	4.895370341663
39	1753	164	0.973
39	1763	165	2.4009117410471
39	1773	166	1.8198067443426
39	1783	167	0.973
39	1793	168	2.2350310601339
39	1803	169	0.973
39	1813	170	0.973
39	1825	171	2.6065429608796
39	1837	172	0.973
39	1849	173	3.5853404646926
39	1863	174	2.9425314216063
39	1879	175	1.6077926564649
39	1895	176	0.973
39	1915	177	2.7721691160653
39	1935	178	2.5179210505026
39	1955	179	0.973
39	1975	180	2.2878147211008
39	1995	181	1.9744989496796
39	2015	182	0.973
39	2033	183	2.7706478420789
39	2051	184	0.973
39	2069	185	3.180048591128
39	2087	186	1.8137064394937
39	2103	187	0.973
39	2119	188	3.6363130874132
38	1122	107	-0.43281500854064
38	1132	108	-0.43001593861263
38	1142	109	0.45305881777313
38	1152	110	0.21554645565339
38	1162	111	-0.60888284107205
38	1172	112	0.093745092116897
38	1182	113	-4.5
38	1192	114	2.1691194649087
38	1202	115	1.1796774215633
38	1214	116	-0.19634001890663
38	1226	117	-1.5232603754838
38	1238	118	-0.83839438797017
38	1250	119	-0.48991934263613
38	1262	120	0.15252417805605
38	1274	121	0.82481997709256
38	1286	122	1.6391417283332
38	1298	123	1.6218978063508
38	1311	124	0.54345306681935
38	1323	125	-0.24994320538826
38	1335	126	0.26971197496168
38	1351	127	-0.59098793028388
38	1367	128	0.12418260897975
38	1383	129	0.33287885421887
38	1399	130	-0.62162654420827
38	1411	131	0.43825651400257
38	1423	132	0.20036449905019
38	1435	133	-0.80036151548848
38	1447	134	0.76938697264995
38	1459	135	-0.48136543822475
38	1471	136	-0.38818636669312
38	1483	137	-0.2424019212842
38	1493	138	-4.5
38	1503	139	0.2520147239448
38	1513	140	-1.0957233682973
38	1523	141	0.82426850593183
38	1533	142	1.7428518328816
38	1543	143	2.129321538168
38	1553	144	1.7432945011998
38	1563	145	-0.78176564904861
38	1573	146	0.84570370144211
38	1583	147	-1.0299733062126
38	1593	148	0.060362442512996
38	1603	149	-0.85566485108252
38	1613	150	-0.93393507755827
38	1623	151	-0.28949961601757
38	1633	152	0.086330898758024
38	1643	153	0.45940596188884
38	1653	154	0.48689800673164
38	1663	155	-2.540794297034
38	1673	156	-0.40219257590211
38	1683	157	-0.57568981060758
[...]
46	1825	171	654.85620648992
46	1837	172	645.09637381235
46	1849	173	635.27278935997
46	1863	174	625.5062957444
46	1879	175	615.39346505021
46	1895	176	605.48897249123
46	1915	177	595.34554876683
46	1935	178	585.71486370566
46	1955	179	575.73681090066
46	1975	180	565.61532990677
46	1995	181	555.90658359818
46	2015	182	545.79203616955
46	2033	183	535.90844625178
46	2051	184	526.32741055973
46	2069	185	516.38150727908
46	2087	186	506.67888894073
46	2103	187	496.66629119656
46	2119	188	486.65391554061
46	2131	189	476.22569383567
46	2143	190	465.01488746109
46	2155	191	453.80853229607
46	2167	192	441.82766699279
46	2179	193	427.97199081082
46	2191	194	414.09460415856
46	2201	195	399.7276610084
46	2211	196	384.59859579802
46	2221	197	368.57621989852
46	2231	198	352.37305301061
46	2241	199	340.02876480725
46	2251	200	323.31629838649
47	1423	132	19.98295659485
47	1435	133	20.110689661924
47	1447	134	21.119626640382
47	1459	135	20.279315906663
47	1471	136	19.993987380124
47	1483	137	20.890113293046
47	1493	138	19.920580322288
47	1503	139	20.498492990008
47	1513	140	20.286473159438
47	1523	141	20.840263931004
47	1533	142	20.885502611955
47	1543	143	20.039135556475
47	1553	144	20.250058244674
47	1563	145	20.113240150891
47	1573	146	20.268380896251
47	1583	147	20.596507753308
47	1593	148	21.132498154922
47	1603	149	20.811146201838
47	1613	150	20.85971822561
47	1623	151	20.161378336388
47	1633	152	20.090842473151
47	1643	153	21.034190343057
47	1653	154	20.042362981026
47	1663	155	20.838778926215
47	1673	156	20.969804693169
47	1683	157	20.141340682392
47	1693	158	20.347321500855
47	1703	159	20.880394385143
47	1713	160	20.345779856497
47	1723	161	20.156492308357
47	1733	162	20.021407261856
47	1743	163	20.841543084446
47	1753	164	20.944875468167
47	1763	165	20.904153497114
47	1773	166	20.509585280733
47	1783	167	19.898836121538
47	1793	168	21.056561241804
47	1803	169	21.006485385347
47	1813	170	20.86388523103
47	1825	171	20.68686356595
47	1837	172	20.107697000394
47	1849	173	20.239041605748
47	1863	174	20.121420199091
47	1879	175	20.89826121602
47	1895	176	20.634003544731
47	1915	177	21.131768219189
47	1935	178	20.063581097887
47	1955	179	20.78725141363
47	1975	180	21.086054985893
47	1995	181	20.22620589127
47	2015	182	21.07161030743
47	2033	183	20.59045712677
47	2051	184	19.960146696532
47	2069	185	20.720274393323
47	2087	186	20.213439506821
47	2103	187	20.859218795404
47	2119	188	20.858756119611
47	2131	189	20.728139039145
47	2143	190	20.788653192359
47	2155	191	20.653499974792
47	2167	192	20.865043951191
47	2179	193	20.963364352418
47	2191	194	20.996211865071
47	2201	195	20.254582513396
47	2211	196	20.501550224952
47	2221	197	20.472323103661
47	2231	198	20.032342508056
47	2241	199	20.020417937373
47	2251	200	20.331289010278
48	1435	133	0.12773306707386
48	1447	134	1.0089369784575
48	1459	135	-0.84031073371879
48	1471	136	-0.2853285265388
48	1483	137	0.89612591292244
48	1493	138	-0.96953297075816
48	1503	139	0.57791266771965
48	1513	140	-0.21201983056963
48	1523	141	0.5537907715654
48	1533	142	0.0452386809513
48	1543	143	-0.84636705548037
48	1553	144	0.21092268819921
48	1563	145	-0.13681809378322
48	1573	146	0.15514074536041
48	1583	147	0.32812685705721
48	1593	148	0.53599040161352
48	1603	149	-0.32135195308365
48	1613	150	0.048572023771705
48	1623	151	-0.69833988922182
48	1633	152	-0.070535863237456
48	1643	153	0.94334786990657
48	1653	154	-0.99182736203074
48	1663	155	0.79641594518907
48	1673	156	0.13102576695383
48	1683	157	-0.82846401077695
48	1693	158	0.20598081846256
48	1703	159	0.53307288428768
48	1713	160	-0.53461452864576
48	1723	161	-0.18928754813969
48	1733	162	-0.1350850465009
48	1743	163	0.82013582258951
48	1753	164	0.10333238372113
48	1763	165	-0.040721971052701
48	1773	166	-0.39456821638159
48	1783	167	-0.61074915919453
48	1793	168	1.157725120266
48	1803	169	-0.050075856456534
48	1813	170	-0.14260015431791
48	1825	171	-0.17702166507952
48	1837	172	-0.57916656555608
48	1849	173	0.13134460535366
48	1863	174	-0.11762140665669
48	1879	175	0.77684101692867
48	1895	176	-0.26425767128822
48	1915	177	0.49776467445772
48	1935	178	-1.0681871213019
48	1955	179	0.72367031574249
48	1975	180	0.29880357226357
48	1995	181	-0.85984909462277
48	2015	182	0.84540441615973
48	2033	183	-0.48115318065975
48	2051	184	-0.63031043023802
48	2069	185	0.76012769679073
48	2087	186	-0.50683488650247
48	2103	187	0.64577928858344
48	2119	188	-0.00046267579309855
48	2131	189	-0.13061708046589
48	2143	190	0.060514153214172
48	2155	191	-0.13515321756713
48	2167	192	0.21154397639912
48	2179	193	0.098320401227102
48	2191	194	0.032847512653099
48	2201	195	-0.74162935167551
48	2211	196	0.24696771155577
48	2221	197	-0.029227121290749
48	2231	198	-0.43998059560545
48	2241	199	-0.01192457068246
48	2251	200	0.31087107290514
49	1435	133	3.4505900268765
49	1447	134	8.1343532019674
49	1459	135	0.973
49	1471	136	1.4380046195955
49	1483	137	7.4714613885907
49	1493	138	0.973
49	1503	139	5.7494950399697
49	1513	140	1.8232909962048
49	1523	141	5.7328969042479
49	1533	142	3.1868247086278
49	1543	143	0.973
49	1553	144	3.8833204068804
49	1563	145	2.1687210555808
49	1573	146	3.6147428901932
49	1583	147	4.5394664994179
49	1593	148	5.7310111647402
49	1603	149	1.3348399576917
49	1613	150	3.1989439289031
49	1623	151	0.973
49	1633	152	2.4868022968678
49	1643	153	7.7664522427515
49	1653	154	0.973
49	1663	155	6.9509473212119
49	1673	156	3.6355870252402
49	1683	157	0.973
49	1693	158	3.8798296000358
49	1703	159	5.6407723270482
49	1713	160	0.973
49	1723	161	1.9193593296948
49	1733	162	2.1654325137736
49	1743	163	7.0710843931682
49	1753	164	3.4907745226038
49	1763	165	2.7571232003852
49	1773	166	0.94607913393485
49	1783	167	0.973
49	1793	168	8.8632488023212
49	1803	169	2.7261543565132
49	1813	170	2.2384450763317
49	1825	171	2.0432047060709
49	1837	172	0.973
49	1849	173	3.4928268932439
49	1863	174	2.2628531767244
49	1879	175	6.8738238217308
49	1895	176	1.6028499297224
49	1915	177	5.5361170205266
49	1935	178	0.973
49	1955	179	6.5679499434363
49	1975	180	4.5117145040081
49	1995	181	0.973
49	2015	182	7.2839789934595
49	2033	183	0.5220945375253
49	2051	184	0.973
49	2069	185	6.7270960324848
49	2087	186	0.973
49	2103	187	6.201057523052
49	2119	188	2.9522747554001
49	2131	189	2.2801532045005
49	2143	190	3.2459741634866
49	2155	191	2.2474680058937
49	2167	192	4.0194060626286
49	2179	193	3.4690552633572
49	2191	194	3.1441264498083
49	2201	195	0.973
49	2211	196	4.1152671917267
49	2221	197	2.746019735045
49	2231	198	0.69484644210271
49	2241	199	2.7595466280333
49	2251	200	4.3903677586637
55	1673	156	156.97410535295
55	1683	157	167.53027831806
55	1693	158	177.98171807599
55	1703	159	188.59591604604
55	1713	160	199.01835195697
55	1723	161	209.06544939468
55	1733	162	219.33873436162
55	1743	163	230.00899034706
55	1753	164	240.30240990149
55	1763	165	250.83420073437
55	1773	166	258.93883628791
55	1783	167	263.95004950396
55	1793	168	268.6887658944
55	1803	169	273.61476022391
55	1813	170	277.33371408609
55	1825	171	282.30071734496
55	1837	172	288.54045990584
55	1849	173	295.72687869686
55	1863	174	303.07403643607
55	1879	175	310.31431154948
55	1895	176	320.61368777053
55	1915	177	330.7858792623
55	1935	178	340.5597387338
55	1955	179	350.15369354035
55	1975	180	360.41861092958
55	1995	181	370.60805768412
55	2015	182	380.30558917486
55	2033	183	390.40761587139
55	2051	184	400.54330858484
55	2069	185	410.36441709769
55	2087	186	420.39433165998
55	2103	187	430.52535098492
55	2119	188	440.75592379314
55	2131	189	450.32831284605
55	2143	190	456.83130770581
55	2155	191	459.87837307071
55	2167	192	461.94755041977
55	2179	193	464.96960762549
55	2191	194	468.97972526161
55	2201	195	474.40243006292
55	2211	196	480.82233270753
55	2221	197	488.58968115214
55	2231	198	496.46472975851
55	2241	199	504.23575479201
55	2251	200	512.0815062132
56	1673	156	196.72194924291
56	1683	157	189.20512124306
56	1693	158	181.76287154984
56	1703	159	174.20472516847
56	1713	160	166.78312850263
56	1723	161	159.62880244273
56	1733	162	152.31341301654
56	1743	163	144.71534890542
56	1753	164	137.38562206439
56	1763	165	129.88615606635
56	1773	166	124.11501612209
56	1783	167	120.54663694337
56	1793	168	117.41684995694
56	1803	169	117.49377642652
56	1813	170	121.93180712391
56	1825	171	128.65561518964
56	1837	172	137.10232423578
56	1849	173	146.83054427357
56	1863	174	156.77635584092
56	1879	175	166.57748091945
56	1895	176	166.7986641218
56	1915	177	160.55262255493
56	1935	178	153.42339339494
56	1955	179	146.42538993828
56	1975	180	138.93797428742
56	1995	181	131.505608277
56	2015	182	124.43205412111
56	2033	183	117.06345387573
56	2051	184	109.67029703118
56	2069	185	102.50660356931
56	2087	186	95.190603213645
56	2103	187	87.800855222855
56	2119	188	80.338491128049
56	2131	189	73.356218120565
56	2143	190	68.612816528118
56	2155	191	68.190888455583
56	2167	192	70.798193824326
56	2179	193	74.634106204173
56	2191	194	79.724168647695
56	2201	195	86.607235070218
56	2211	196	94.756049720461
56	2221	197	104.61518408791
56	2231	198	114.61102281124
56	2241	199	124.4748238914
56	2251	200	134.43427112207
57	1683	157	12.959825894583
57	1693	158	12.831244813648
57	1703	159	13.03106326102
57	1713	160	12.795636756762
57	1723	161	12.334833274244
57	1733	162	12.612523968399
57	1743	163	13.099885752073
57	1753	164	12.637243225004
57	1763	165	12.929891922346
57	1773	166	9.9500705473611
57	1783	167	6.1522723258959
57	1793	168	5.6882503244963
57	1803	169	5.2050122442592
57	1813	170	5.8042427827308
57	1825	171	8.3600611163706
57	1837	172	10.502233729412
57	1849	173	12.095603157387
57	1863	174	12.366146050298
57	1879	175	12.18624979546
57	1895	176	12.43127818403
57	1915	177	11.992294627612
57	1935	178	12.098108320704
57	1955	179	11.875421865026
57	1975	180	12.705941070683
57	1995	181	12.612523325507
57	2015	182	12.003629350357
57	2033	183	12.504314553502
57	2051	184	12.545986435583
57	2069	185	12.156593305266
57	2087	186	12.415053968781
57	2103	187	12.540201703293
57	2119	188	12.663429260228
57	2131	189	11.848727719867
57	2143	190	8.0494237155511
57	2155	191	3.5494237155511
57	2167	192	3.329218364027
57	2179	193	4.8831310447628
57	2191	194	6.4796688444537
57	2201	195	8.7621697272264
57	2211	196	10.373472033846
57	2221	197	12.550715536959
57	2231	198	12.724740701795
57	2241	199	12.556656279994
57	2251	200	12.677249286507
58	1693	158	-0.12858108093496
58	1703	159	0.19981844737194
58	1713	160	-0.23542650425806
58	1723	161	-0.46080348251853
58	1733	162	0.27769069415517
58	1743	163	0.48736178367399
58	1753	164	-0.46264252706897
58	1763	165	0.29264869734179
58	1773	166	-2.9798213749844
58	1783	167	-3.7977982214652
58	1793	168	-0.46402200139965
58	1803	169	-0.48323808023706
58	1813	170	0.5992305384716
58	1825	171	2.5558183336398
58	1837	172	2.1421726130415
58	1849	173	1.5933694279753
58	1863	174	0.2705428929105
58	1879	175	-0.17989625483751
58	1895	176	0.24502838857006
58	1915	177	-0.43898355641868
58	1935	178	0.10581369309221
58	1955	179	-0.2226864556782
58	1975	180	0.83051920565777
58	1995	181	-0.093417745176703
58	2015	182	-0.60889397514984
58	2033	183	0.50068520314526
58	2051	184	0.041671882080847
58	2069	185	-0.38939313031733
58	2087	186	0.25846066351514
58	2103	187	0.12514773451258
58	2119	188	0.12322755693458
58	2131	189	-0.81470154036068
58	2143	190	-3.7993040043162
58	2155	191	-4.5
58	2167	192	-0.22020535152405
58	2179	193	1.5539126807358
58	2191	194	1.5965377996909
58	2201	195	2.2825008827727
58	2211	196	1.6113023066195
58	2221	197	2.1772435031133
58	2231	198	0.17402516483561
58	2241	199	-0.16808442180045
58	2251	200	0.12059300651308
59	1693	158	1.526518838722
59	1703	159	2.5705603376595
59	1713	160	1.1947999003396
59	1723	161	0.973
59	1733	162	2.7478459399477
59	1743	163	3.4882456522198
59	1753	164	0.973
59	1763	165	2.8453522363446
59	1773	166	0.973
59	1783	167	0.973
59	1793	168	0.973
59	1803	169	0.973
59	1813	170	2.2462776500311
59	1825	171	6.7166635827145
59	1837	172	7.1455571111468
59	1849	173	6.5017045701651
59	1863	174	2.6875190829862
59	1879	175	1.3367093228165
59	1895	176	2.6212427274543
59	1915	177	0.973
59	1935	178	2.1657058929688
59	1955	179	1.2002574251457
59	1975	180	4.4555868794823
59	1995	181	1.6198179003526
59	2015	182	0.973
59	2033	183	3.4026573205918
59	2051	184	2.0236429358304
59	2069	185	0.973
59	2087	186	2.6589978037579
59	2103	187	2.2753333310922
59	2119	188	2.2845576800805
59	2131	189	0.973
59	2143	190	0.973
59	2155	191	0.973
59	2167	192	0.973
59	2179	193	3.1850168433198
59	2191	194	3.9408651946013
59	2201	195	6.4147503731677
59	2211	196	5.7418034747682
59	2221	197	8.4836363451408
59	2231	198	2.4478533169791
59	2241	199	1.3899757270092
59	2251	200	2.278200524052
60	1803	169	520.6725729359
60	1813	170	529.10216561058
60	1825	171	532.00218650567
60	1837	172	531.95688497579
60	1849	173	531.91356722603
60	1863	174	531.86749901708
60	1879	175	531.8252823206
60	1895	176	531.78354214924
60	1915	177	531.57149819052
60	1935	178	531.11509971891
60	1955	179	530.52222394967
60	1975	180	530.63547834914
60	1995	181	533.78245690404
60	2015	182	541.00650054645
60	2033	183	550.49927822729
60	2051	184	561.49629899743
60	2069	185	573.80576223303
60	2087	186	585.81600510169
60	2103	187	597.90685306277
60	2119	188	610.31167015415
60	2131	189	622.40912700211
60	2143	190	634.71232976504
60	2155	191	646.71960543732
60	2167	192	659.03006299952
60	2179	193	671.28681125342
60	2191	194	683.11799947998
60	2201	195	695.06855278954
60	2211	196	702.52034804557
60	2221	197	707.71050004249
60	2231	198	711.4154426362
60	2241	199	715.01281362942
60	2251	200	714.95936805008
61	1803	169	29.688803723
61	1813	170	37.962931648909
61	1825	171	48.729545658756
61	1837	172	61.433140059144
61	1849	173	73.58043673177
61	1863	174	86.499025634732
61	1879	175	98.337561557586
61	1895	176	110.04246884258
61	1915	177	121.84275716111
61	1935	178	133.47859473834
61	1955	179	142.79248182287
61	1975	180	149.17473315351
61	1995	181	155.6438553021
61	2015	182	157.09284794619
61	2033	183	156.48095592991
61	2051	184	156.21253185101
61	2069	185	155.91207262666
61	2087	186	155.61891701235
61	2103	187	155.32379392448
61	2119	188	155.02100722695
61	2131	189	154.72572282408
61	2143	190	154.42541641035
61	2155	191	154.13233322175
61	2167	192	153.83184972708
61	2179	193	153.53267721216
61	2191	194	153.24389210678
61	2201	195	152.95219344297
61	2211	196	152.77030406406
61	2221	197	152.86103239382
61	2231	198	155.60525979518
61	2241	199	160.62518733501
61	2251	200	168.10475551792
62	1813	170	11.812487106422
62	1825	171	11.967800753704
62	1837	172	12.703449590691
62	1849	173	12.147158204229
62	1863	174	12.918441642519
62	1879	175	11.838400974055
62	1895	176	11.704773859447
62	1915	177	11.800245030039
62	1935	178	11.647661245242
62	1955	179	9.3393871176144
62	1975	180	6.3819267592165
62	1995	181	7.4573187266847
62	2015	182	7.6529327907039
62	2033	183	9.5143054951353
62	2051	184	11.00005665495
62	2069	185	12.312861438911
62	2087	186	12.013558467921
62	2103	187	12.094185812516
62	2119	188	12.408241618495
62	2131	189	12.100796523877
62	2143	190	12.306599237957
62	2155	191	12.010590452399
62	2167	192	12.313856040012
62	2179	193	12.260131904483
62	2191	194	11.834454395227
62	2201	195	11.953852430652
62	2211	196	7.453852430652
62	2221	197	5.200835994321
62	2231	198	4.8934915141128
62	2241	199	5.0262173229289
62	2251	200	7.4319396394231
63	1825	171	0.15531364728231
63	1837	172	0.73564883698709
63	1849	173	-0.55629138646182
63	1863	174	0.77128343828954
63	1879	175	-1.0800406684633
63	1895	176	-0.13362711460795
63	1915	177	0.095471170591191
63	1935	178	-0.1525837847963
63	1955	179	-2.3082741276279
63	1975	180	-2.9574603583979
63	1995	181	1.0753919674682
63	2015	182	0.19561406401917
63	2033	183	1.8613727044314
63	2051	184	1.4857511598151
63	2069	185	1.3128047839607
63	2087	186	-0.29930297099054
63	2103	187	0.080627344595268
63	2119	188	0.3140558059793
63	2131	189	-0.30744509461802
63	2143	190	0.20580271407962
63	2155	191	-0.29600878555793
63	2167	192	0.30326558761299
63	2179	193	-0.053724135528318
63	2191	194	-0.42567750925664
63	2201	195	0.11939803542518
63	2211	196	-4.5
63	2221	197	-2.253016436331
63	2231	198	-0.30734448020812
63	2241	199	0.13272580881603
63	2251	200	2.4057223164942
64	1825	171	2.2936376920021
64	1837	172	4.1644079500433
64	1849	173	0.973
64	1863	174	4.333617065215
64	1879	175	0.973
64	1895	176	1.4458325739726
64	1915	177	2.1025412844663
64	1935	178	1.3895458139874
64	1955	179	0.973
64	1975	180	0.973
64	1995	181	3.4407611174486
64	2015	182	1.8813649508359
64	2033	183	5.9165619020659
64	2051	184	5.7023475330483
64	2069	185	5.7720334633079
64	2087	186	0.973
64	2103	187	2.0918469669579
64	2119	188	2.8242049527339
64	2131	189	0.973
64	2143	190	2.4862402952178
64	2155	191	0.973
64	2167	192	2.7764897132823
64	2179	193	1.7129291329303
64	2191	194	0.973
64	2201	195	2.1884212023708
64	2211	196	0.973
64	2221	197	0.973
64	2231	198	0.973
64	2241	199	1.5249678933215
64	2251	200	5.8153208325862
65	2015	182	712.04755287009
65	2033	183	715.2097533403
65	2051	184	715.16031041147
65	2069	185	711.87765741916
65	2087	186	714.99357000132
65	2103	187	714.91680378874
65	2119	188	714.57915253396
65	2131	189	712.83627837786
65	2143	190	711.05311484249
65	2155	191	709.20392766489
65	2167	192	702.55585796129
65	2179	193	696.81093968648
65	2191	194	694.40654173719
65	2201	195	696.48508514748
65	2211	196	702.21113868244
65	2221	197	709.02364170296
65	2231	198	712.18306231232
65	2241	199	712.6285085405
65	2251	200	713.55099192648
66	2015	182	142.29
66	2033	183	144.64389245657
66	2051	184	148.37813471301
66	2069	185	154.59057756974
66	2087	186	163.31828244704
66	2103	187	174.06151188091
66	2119	188	186.85406786251
66	2131	189	199.68617825561
66	2143	190	208.54132873855
66	2155	191	217.32937568483
66	2167	192	224.02024917079
66	2179	193	232.36475796118
66	2191	194	243.7716445789
66	2201	195	255.03008611709
66	2211	196	264.29801072534
66	2221	197	270.20143547838
66	2231	198	275.58614261768
66	2241	199	283.24773587009
66	2251	200	290.13899007816
67	2033	183	2.2949710523244
67	2051	184	3.739446775266
67	2069	185	6.2511763125891
67	2087	186	8.6702233621851
67	2103	187	10.674818483158
67	2119	188	12.727513875044
67	2131	189	12.870327638614
67	2143	190	8.9754918403002
67	2155	191	8.7215196019262
67	2167	192	9.7486613218593
67	2179	193	9.7946177801969
67	2191	194	10.920825368158
67	2201	195	10.770683252873
67	2211	196	10.365781255082
67	2221	197	8.8251548616817
67	2231	198	6.5595726156837
67	2241	199	7.8171714980084
67	2251	200	6.976577776803
68	2051	184	1.4444757229416
68	2069	185	2.5117295373231
68	2087	186	2.419047049596
68	2103	187	2.004595120973
68	2119	188	2.0526953918859
68	2131	189	0.14281376357001
68	2143	190	-3.8948357983138
68	2155	191	-0.25397223837395
68	2167	192	1.0271417199331
68	2179	193	0.045956458337605
68	2191	194	1.1262075879611
68	2201	195	-0.15014211528469
68	2211	196	-0.4049019977916
68	2221	197	-1.5406263934
68	2231	198	-2.265582245998
68	2241	199	1.2575988823247
68	2251	200	-0.84059372120537
69	2051	184	2.5969926024563
69	2069	185	5.2181275887146
69	2087	186	6.6431173278544
69	2103	187	6.894408289758
69	2119	188	8.2107310044956
69	2131	189	2.3707804797092
69	2143	190	0.973
69	2155	191	0.973
69	2167	192	4.0790572685893
69	2179	193	1.7777758014406
69	2191	194	4.7212280154773
69	2201	195	1.3552743505423
69	2211	196	0.973
69	2221	197	0.973
69	2231	198	0.973
69	2241	199	3.9004678411531
69	2251	200	0.973
70	2201	195	720.93464078286
70	2211	196	722.61808579931
70	2221	197	726.81220755832
70	2231	198	734.45989666757
70	2241	199	742.02741420211
70	2251	200	749.16812412841
71	2201	195	273.84623285601
71	2211	196	270.74800873468
71	2221	197	270.96041592562
71	2231	198	272.48785015507
71	2241	199	268.1587564333
71	2251	200	260.46548784969
72	2211	196	2.0300680076936
72	2221	197	4.6156192382099
72	2231	198	6.3372967659263
72	2241	199	8.6721326444997
72	2251	200	10.373778884788
73	2221	197	2.5855512305163
73	2231	198	1.7216775277164
73	2241	199	2.3348358785734
73	2251	200	1.7016462402884
74	2221	197	4.2178158888167
74	2231	198	4.0687212633036
74	2241	199	6.4683623125562
74	2251	200	5.967813712036

